/*---------------------------------------------------------------------------*\
| =========                 |                                                 |
| \\      /  F ield         | OpenFOAM: The Open Source CFD Toolbox           |
|  \\    /   O peration     | Version:  4.0                                   |
|   \\  /    A nd           | Web:      www.OpenFOAM.org                      |
|    \\/     M anipulation  |                                                 |
\*---------------------------------------------------------------------------*/
Build  : 4.0
Exec   : matrLaplacianFoam
Date   : Sep 07 2017
Time   : 23:12:29
Host   : "debian-dell"
PID    : 4789
Case   : /home/jenek/matrLaplacianFoam/flange
nProcs : 1
sigFpe : Enabling floating point exception trapping (FOAM_SIGFPE).
fileModificationChecking : Monitoring run-time modified files using timeStampMaster
allowSystemOperations : Allowing user-supplied system call operations

// * * * * * * * * * * * * * * * * * * * * * * * * * * * * * * * * * * * * * //
Create time

Create mesh for time = 0


SIMPLE: no convergence criteria found. Calculations will run for 3 steps.

Reading field T

Reading transportProperties

Reading diffusivity DT


Calculating temperature distribution

Time = 0.005

DICPCG:  Solving for T, Initial residual = 1, Final residual = 9.60003e-13, No Iterations 1
DICPCG:  Solving for T, Initial residual = 8.42125e-11, Final residual = 8.42125e-11, No Iterations 0
DICPCG:  Solving for T, Initial residual = 8.42125e-11, Final residual = 8.42125e-11, No Iterations 0
ExecutionTime = 0.01 s  ClockTime = 0 s

Time = 0.01

DICPCG:  Solving for T, Initial residual = 0.217391, Final residual = 2.08665e-13, No Iterations 1
DICPCG:  Solving for T, Initial residual = 6.31594e-11, Final residual = 6.31594e-11, No Iterations 0
DICPCG:  Solving for T, Initial residual = 6.31594e-11, Final residual = 6.31594e-11, No Iterations 0
ExecutionTime = 0.02 s  ClockTime = 0 s

Time = 0.015

DICPCG:  Solving for T, Initial residual = 0.121951, Final residual = 1.17078e-13, No Iterations 1
DICPCG:  Solving for T, Initial residual = 8.42125e-11, Final residual = 8.42125e-11, No Iterations 0
DICPCG:  Solving for T, Initial residual = 8.42125e-11, Final residual = 8.42125e-11, No Iterations 0
ExecutionTime = 0.04 s  ClockTime = 0 s

Time = 0.02

DICPCG:  Solving for T, Initial residual = 0.0847457, Final residual = 8.13532e-14, No Iterations 1
DICPCG:  Solving for T, Initial residual = 7.3686e-11, Final residual = 7.3686e-11, No Iterations 0
DICPCG:  Solving for T, Initial residual = 7.3686e-11, Final residual = 7.3686e-11, No Iterations 0
ExecutionTime = 0.04 s  ClockTime = 0 s

Time = 0.025

DICPCG:  Solving for T, Initial residual = 0.064935, Final residual = 6.23309e-14, No Iterations 1
DICPCG:  Solving for T, Initial residual = 2.52638e-11, Final residual = 2.52638e-11, No Iterations 0
DICPCG:  Solving for T, Initial residual = 2.52638e-11, Final residual = 2.52638e-11, No Iterations 0
ExecutionTime = 0.05 s  ClockTime = 0 s

Time = 0.03

DICPCG:  Solving for T, Initial residual = 0.0526316, Final residual = 5.05266e-14, No Iterations 1
DICPCG:  Solving for T, Initial residual = 3.50886e-11, Final residual = 3.50886e-11, No Iterations 0
DICPCG:  Solving for T, Initial residual = 3.50886e-11, Final residual = 3.50886e-11, No Iterations 0
ExecutionTime = 0.07 s  ClockTime = 0 s

Time = 0.035

DICPCG:  Solving for T, Initial residual = 0.0442478, Final residual = 4.24765e-14, No Iterations 1
DICPCG:  Solving for T, Initial residual = 3.00759e-11, Final residual = 3.00759e-11, No Iterations 0
DICPCG:  Solving for T, Initial residual = 3.00759e-11, Final residual = 3.00759e-11, No Iterations 0
ExecutionTime = 0.08 s  ClockTime = 0 s

Time = 0.04

DICPCG:  Solving for T, Initial residual = 0.0381679, Final residual = 3.66387e-14, No Iterations 1
DICPCG:  Solving for T, Initial residual = 2.63165e-11, Final residual = 2.63165e-11, No Iterations 0
DICPCG:  Solving for T, Initial residual = 2.63165e-11, Final residual = 2.63165e-11, No Iterations 0
ExecutionTime = 0.09 s  ClockTime = 0 s

Time = 0.045

DICPCG:  Solving for T, Initial residual = 0.033557, Final residual = 3.22162e-14, No Iterations 1
DICPCG:  Solving for T, Initial residual = 1.87139e-11, Final residual = 1.87139e-11, No Iterations 0
DICPCG:  Solving for T, Initial residual = 1.87139e-11, Final residual = 1.87139e-11, No Iterations 0
ExecutionTime = 0.09 s  ClockTime = 0 s

Time = 0.05

DICPCG:  Solving for T, Initial residual = 0.0299401, Final residual = 2.87394e-14, No Iterations 1
DICPCG:  Solving for T, Initial residual = 2.10532e-11, Final residual = 2.10532e-11, No Iterations 0
DICPCG:  Solving for T, Initial residual = 2.10532e-11, Final residual = 2.10532e-11, No Iterations 0
ExecutionTime = 0.1 s  ClockTime = 0 s

Time = 0.055

DICPCG:  Solving for T, Initial residual = 0.027027, Final residual = 2.59432e-14, No Iterations 1
DICPCG:  Solving for T, Initial residual = 1.91393e-11, Final residual = 1.91393e-11, No Iterations 0
DICPCG:  Solving for T, Initial residual = 1.91393e-11, Final residual = 1.91393e-11, No Iterations 0
ExecutionTime = 0.11 s  ClockTime = 0 s

Time = 0.06

DICPCG:  Solving for T, Initial residual = 0.0246305, Final residual = 2.36437e-14, No Iterations 1
DICPCG:  Solving for T, Initial residual = 2.63165e-11, Final residual = 2.63165e-11, No Iterations 0
DICPCG:  Solving for T, Initial residual = 2.63165e-11, Final residual = 2.63165e-11, No Iterations 0
ExecutionTime = 0.12 s  ClockTime = 0 s

Time = 0.065

DICPCG:  Solving for T, Initial residual = 0.0226244, Final residual = 2.17171e-14, No Iterations 1
DICPCG:  Solving for T, Initial residual = 6.47791e-12, Final residual = 6.47791e-12, No Iterations 0
DICPCG:  Solving for T, Initial residual = 6.47791e-12, Final residual = 6.47791e-12, No Iterations 0
ExecutionTime = 0.13 s  ClockTime = 0 s

Time = 0.07

DICPCG:  Solving for T, Initial residual = 0.0209205, Final residual = 2.008e-14, No Iterations 1
DICPCG:  Solving for T, Initial residual = 1.20304e-11, Final residual = 1.20304e-11, No Iterations 0
DICPCG:  Solving for T, Initial residual = 1.20304e-11, Final residual = 1.20304e-11, No Iterations 0
ExecutionTime = 0.14 s  ClockTime = 0 s

Time = 0.075

DICPCG:  Solving for T, Initial residual = 0.0194552, Final residual = 1.86765e-14, No Iterations 1
DICPCG:  Solving for T, Initial residual = 5.61419e-12, Final residual = 5.61419e-12, No Iterations 0
DICPCG:  Solving for T, Initial residual = 5.61419e-12, Final residual = 5.61419e-12, No Iterations 0
ExecutionTime = 0.15 s  ClockTime = 0 s

Time = 0.08

DICPCG:  Solving for T, Initial residual = 0.0181818, Final residual = 1.74553e-14, No Iterations 1
DICPCG:  Solving for T, Initial residual = 1.31583e-11, Final residual = 1.31583e-11, No Iterations 0
DICPCG:  Solving for T, Initial residual = 1.31583e-11, Final residual = 1.31583e-11, No Iterations 0
ExecutionTime = 0.16 s  ClockTime = 0 s

Time = 0.085

DICPCG:  Solving for T, Initial residual = 0.0170648, Final residual = 1.63818e-14, No Iterations 1
DICPCG:  Solving for T, Initial residual = 4.9537e-12, Final residual = 4.9537e-12, No Iterations 0
DICPCG:  Solving for T, Initial residual = 4.9537e-12, Final residual = 4.9537e-12, No Iterations 0
ExecutionTime = 0.17 s  ClockTime = 0 s

Time = 0.09

DICPCG:  Solving for T, Initial residual = 0.0160771, Final residual = 1.54336e-14, No Iterations 1
DICPCG:  Solving for T, Initial residual = 9.35699e-12, Final residual = 9.35699e-12, No Iterations 0
DICPCG:  Solving for T, Initial residual = 9.35699e-12, Final residual = 9.35699e-12, No Iterations 0
ExecutionTime = 0.18 s  ClockTime = 0 s

Time = 0.095

DICPCG:  Solving for T, Initial residual = 0.0151975, Final residual = 1.45898e-14, No Iterations 1
DICPCG:  Solving for T, Initial residual = 1.44048e-11, Final residual = 1.44048e-11, No Iterations 0
DICPCG:  Solving for T, Initial residual = 1.44048e-11, Final residual = 1.44048e-11, No Iterations 0
ExecutionTime = 0.19 s  ClockTime = 0 s

Time = 0.1

DICPCG:  Solving for T, Initial residual = 0.0144092, Final residual = 1.38319e-14, No Iterations 1
DICPCG:  Solving for T, Initial residual = 4.21065e-12, Final residual = 4.21065e-12, No Iterations 0
DICPCG:  Solving for T, Initial residual = 4.21065e-12, Final residual = 4.21065e-12, No Iterations 0
ExecutionTime = 0.2 s  ClockTime = 0 s

Time = 0.105

DICPCG:  Solving for T, Initial residual = 0.0136986, Final residual = 1.31508e-14, No Iterations 1
DICPCG:  Solving for T, Initial residual = 1.20304e-11, Final residual = 1.20304e-11, No Iterations 0
DICPCG:  Solving for T, Initial residual = 1.20304e-11, Final residual = 1.20304e-11, No Iterations 0
ExecutionTime = 0.21 s  ClockTime = 0 s

Time = 0.11

DICPCG:  Solving for T, Initial residual = 0.0130548, Final residual = 1.25313e-14, No Iterations 1
DICPCG:  Solving for T, Initial residual = 7.65573e-12, Final residual = 7.65573e-12, No Iterations 0
DICPCG:  Solving for T, Initial residual = 7.65573e-12, Final residual = 7.65573e-12, No Iterations 0
ExecutionTime = 0.23 s  ClockTime = 0 s

Time = 0.115

DICPCG:  Solving for T, Initial residual = 0.0124688, Final residual = 1.19697e-14, No Iterations 1
DICPCG:  Solving for T, Initial residual = 7.32288e-12, Final residual = 7.32288e-12, No Iterations 0
DICPCG:  Solving for T, Initial residual = 7.32288e-12, Final residual = 7.32288e-12, No Iterations 0
ExecutionTime = 0.23 s  ClockTime = 0 s

Time = 0.12

DICPCG:  Solving for T, Initial residual = 0.0119331, Final residual = 1.14555e-14, No Iterations 1
DICPCG:  Solving for T, Initial residual = 8.7722e-12, Final residual = 8.7722e-12, No Iterations 0
DICPCG:  Solving for T, Initial residual = 8.7722e-12, Final residual = 8.7722e-12, No Iterations 0
ExecutionTime = 0.25 s  ClockTime = 0 s

Time = 0.125

DICPCG:  Solving for T, Initial residual = 0.0114416, Final residual = 1.09841e-14, No Iterations 1
DICPCG:  Solving for T, Initial residual = 3.36852e-12, Final residual = 3.36852e-12, No Iterations 0
DICPCG:  Solving for T, Initial residual = 3.36852e-12, Final residual = 3.36852e-12, No Iterations 0
ExecutionTime = 0.25 s  ClockTime = 0 s

Time = 0.13

DICPCG:  Solving for T, Initial residual = 0.010989, Final residual = 1.05484e-14, No Iterations 1
DICPCG:  Solving for T, Initial residual = 6.47793e-12, Final residual = 6.47793e-12, No Iterations 0
DICPCG:  Solving for T, Initial residual = 6.47793e-12, Final residual = 6.47793e-12, No Iterations 0
ExecutionTime = 0.26 s  ClockTime = 0 s

Time = 0.135

DICPCG:  Solving for T, Initial residual = 0.0105708, Final residual = 1.01481e-14, No Iterations 1
DICPCG:  Solving for T, Initial residual = 1.5595e-12, Final residual = 1.5595e-12, No Iterations 0
DICPCG:  Solving for T, Initial residual = 1.5595e-12, Final residual = 1.5595e-12, No Iterations 0
ExecutionTime = 0.27 s  ClockTime = 0 s

Time = 0.14

DICPCG:  Solving for T, Initial residual = 0.0101833, Final residual = 9.77459e-15, No Iterations 1
DICPCG:  Solving for T, Initial residual = 3.00761e-12, Final residual = 3.00761e-12, No Iterations 0
DICPCG:  Solving for T, Initial residual = 3.00761e-12, Final residual = 3.00761e-12, No Iterations 0
ExecutionTime = 0.28 s  ClockTime = 0 s

Time = 0.145

DICPCG:  Solving for T, Initial residual = 0.00982316, Final residual = 9.43e-15, No Iterations 1
DICPCG:  Solving for T, Initial residual = 7.25976e-12, Final residual = 7.25976e-12, No Iterations 0
DICPCG:  Solving for T, Initial residual = 7.25976e-12, Final residual = 7.25976e-12, No Iterations 0
ExecutionTime = 0.29 s  ClockTime = 0 s

Time = 0.15

DICPCG:  Solving for T, Initial residual = 0.00948764, Final residual = 9.1086e-15, No Iterations 1
DICPCG:  Solving for T, Initial residual = 4.21066e-12, Final residual = 4.21066e-12, No Iterations 0
DICPCG:  Solving for T, Initial residual = 4.21066e-12, Final residual = 4.21066e-12, No Iterations 0
ExecutionTime = 0.31 s  ClockTime = 0 s

Time = 0.155

DICPCG:  Solving for T, Initial residual = 0.00917429, Final residual = 8.8071e-15, No Iterations 1
DICPCG:  Solving for T, Initial residual = 1.35828e-12, Final residual = 1.35828e-12, No Iterations 0
DICPCG:  Solving for T, Initial residual = 1.35828e-12, Final residual = 1.35828e-12, No Iterations 0
ExecutionTime = 0.32 s  ClockTime = 0 s

Time = 0.16

DICPCG:  Solving for T, Initial residual = 0.00888097, Final residual = 8.52585e-15, No Iterations 1
DICPCG:  Solving for T, Initial residual = 3.9475e-12, Final residual = 3.9475e-12, No Iterations 0
DICPCG:  Solving for T, Initial residual = 3.9475e-12, Final residual = 3.9475e-12, No Iterations 0
ExecutionTime = 0.32 s  ClockTime = 0 s

Time = 0.165

DICPCG:  Solving for T, Initial residual = 0.00860583, Final residual = 8.26016e-15, No Iterations 1
DICPCG:  Solving for T, Initial residual = 1.27596e-12, Final residual = 1.27596e-12, No Iterations 0
DICPCG:  Solving for T, Initial residual = 1.27596e-12, Final residual = 1.27596e-12, No Iterations 0
ExecutionTime = 0.33 s  ClockTime = 0 s

Time = 0.17

DICPCG:  Solving for T, Initial residual = 0.00834722, Final residual = 8.01315e-15, No Iterations 1
DICPCG:  Solving for T, Initial residual = 3.71529e-12, Final residual = 3.71529e-12, No Iterations 0
DICPCG:  Solving for T, Initial residual = 3.71529e-12, Final residual = 3.71529e-12, No Iterations 0
ExecutionTime = 0.34 s  ClockTime = 0 s

Time = 0.175

DICPCG:  Solving for T, Initial residual = 0.0081037, Final residual = 7.77879e-15, No Iterations 1
DICPCG:  Solving for T, Initial residual = 3.60914e-12, Final residual = 3.60914e-12, No Iterations 0
DICPCG:  Solving for T, Initial residual = 3.60914e-12, Final residual = 3.60914e-12, No Iterations 0
ExecutionTime = 0.35 s  ClockTime = 0 s

Time = 0.18

DICPCG:  Solving for T, Initial residual = 0.00787399, Final residual = 7.55829e-15, No Iterations 1
DICPCG:  Solving for T, Initial residual = 3.50889e-12, Final residual = 3.50889e-12, No Iterations 0
DICPCG:  Solving for T, Initial residual = 3.50889e-12, Final residual = 3.50889e-12, No Iterations 0
ExecutionTime = 0.36 s  ClockTime = 0 s

Time = 0.185

DICPCG:  Solving for T, Initial residual = 0.00765694, Final residual = 7.34884e-15, No Iterations 1
DICPCG:  Solving for T, Initial residual = 1.13802e-12, Final residual = 1.13802e-12, No Iterations 0
DICPCG:  Solving for T, Initial residual = 1.13802e-12, Final residual = 1.13802e-12, No Iterations 0
ExecutionTime = 0.37 s  ClockTime = 0 s

Time = 0.19

DICPCG:  Solving for T, Initial residual = 0.00745154, Final residual = 7.15278e-15, No Iterations 1
DICPCG:  Solving for T, Initial residual = 2.21614e-12, Final residual = 2.21614e-12, No Iterations 0
DICPCG:  Solving for T, Initial residual = 2.21614e-12, Final residual = 2.21614e-12, No Iterations 0
ExecutionTime = 0.39 s  ClockTime = 1 s

Time = 0.195

DICPCG:  Solving for T, Initial residual = 0.00725687, Final residual = 6.96566e-15, No Iterations 1
DICPCG:  Solving for T, Initial residual = 6.47796e-12, Final residual = 6.47796e-12, No Iterations 0
DICPCG:  Solving for T, Initial residual = 6.47796e-12, Final residual = 6.47796e-12, No Iterations 0
ExecutionTime = 0.39 s  ClockTime = 1 s

Time = 0.2

DICPCG:  Solving for T, Initial residual = 0.00707211, Final residual = 6.78832e-15, No Iterations 1
DICPCG:  Solving for T, Initial residual = 4.21068e-12, Final residual = 4.21068e-12, No Iterations 0
DICPCG:  Solving for T, Initial residual = 4.21068e-12, Final residual = 4.21068e-12, No Iterations 0
ExecutionTime = 0.41 s  ClockTime = 1 s

Time = 0.205

DICPCG:  Solving for T, Initial residual = 0.00689653, Final residual = 6.62003e-15, No Iterations 1
DICPCG:  Solving for T, Initial residual = 2.05399e-12, Final residual = 2.05399e-12, No Iterations 0
DICPCG:  Solving for T, Initial residual = 2.05399e-12, Final residual = 2.05399e-12, No Iterations 0
ExecutionTime = 0.41 s  ClockTime = 1 s

Time = 0.21

DICPCG:  Solving for T, Initial residual = 0.00672945, Final residual = 6.45917e-15, No Iterations 1
DICPCG:  Solving for T, Initial residual = 0, Final residual = 0, No Iterations 0
DICPCG:  Solving for T, Initial residual = 0, Final residual = 0, No Iterations 0
ExecutionTime = 0.43 s  ClockTime = 1 s

Time = 0.215

DICPCG:  Solving for T, Initial residual = 0.00657028, Final residual = 6.30663e-15, No Iterations 1
DICPCG:  Solving for T, Initial residual = 2.93768e-12, Final residual = 2.93768e-12, No Iterations 0
DICPCG:  Solving for T, Initial residual = 2.93768e-12, Final residual = 2.93768e-12, No Iterations 0
ExecutionTime = 0.44 s  ClockTime = 1 s

Time = 0.22

DICPCG:  Solving for T, Initial residual = 0.00641846, Final residual = 6.16137e-15, No Iterations 1
DICPCG:  Solving for T, Initial residual = 2.87092e-12, Final residual = 2.87092e-12, No Iterations 0
DICPCG:  Solving for T, Initial residual = 2.87092e-12, Final residual = 2.87092e-12, No Iterations 0
ExecutionTime = 0.45 s  ClockTime = 1 s

Time = 0.225

DICPCG:  Solving for T, Initial residual = 0.0062735, Final residual = 6.02222e-15, No Iterations 1
DICPCG:  Solving for T, Initial residual = 2.80712e-12, Final residual = 2.80712e-12, No Iterations 0
DICPCG:  Solving for T, Initial residual = 2.80712e-12, Final residual = 2.80712e-12, No Iterations 0
ExecutionTime = 0.46 s  ClockTime = 1 s

Time = 0.23

DICPCG:  Solving for T, Initial residual = 0.00613494, Final residual = 5.88921e-15, No Iterations 1
DICPCG:  Solving for T, Initial residual = 6.40756e-12, Final residual = 6.40756e-12, No Iterations 0
DICPCG:  Solving for T, Initial residual = 6.40756e-12, Final residual = 6.40756e-12, No Iterations 0
ExecutionTime = 0.47 s  ClockTime = 1 s

Time = 0.235

DICPCG:  Solving for T, Initial residual = 0.00600238, Final residual = 5.7613e-15, No Iterations 1
DICPCG:  Solving for T, Initial residual = 1.79178e-12, Final residual = 1.79178e-12, No Iterations 0
DICPCG:  Solving for T, Initial residual = 1.79178e-12, Final residual = 1.79178e-12, No Iterations 0
ExecutionTime = 0.48 s  ClockTime = 1 s

Time = 0.24

DICPCG:  Solving for T, Initial residual = 0.00587542, Final residual = 5.63987e-15, No Iterations 1
DICPCG:  Solving for T, Initial residual = 2.63168e-12, Final residual = 2.63168e-12, No Iterations 0
DICPCG:  Solving for T, Initial residual = 2.63168e-12, Final residual = 2.63168e-12, No Iterations 0
ExecutionTime = 0.49 s  ClockTime = 1 s

Time = 0.245

DICPCG:  Solving for T, Initial residual = 0.00575372, Final residual = 5.52284e-15, No Iterations 1
DICPCG:  Solving for T, Initial residual = 2.57797e-12, Final residual = 2.57797e-12, No Iterations 0
DICPCG:  Solving for T, Initial residual = 2.57797e-12, Final residual = 2.57797e-12, No Iterations 0
ExecutionTime = 0.5 s  ClockTime = 1 s

Time = 0.25

DICPCG:  Solving for T, Initial residual = 0.00563695, Final residual = 5.41056e-15, No Iterations 1
DICPCG:  Solving for T, Initial residual = 1.68428e-12, Final residual = 1.68428e-12, No Iterations 0
DICPCG:  Solving for T, Initial residual = 1.68428e-12, Final residual = 1.68428e-12, No Iterations 0
ExecutionTime = 0.52 s  ClockTime = 1 s

Time = 0.255

DICPCG:  Solving for T, Initial residual = 0.00552484, Final residual = 5.30395e-15, No Iterations 1
DICPCG:  Solving for T, Initial residual = 8.25625e-13, Final residual = 8.25625e-13, No Iterations 0
DICPCG:  Solving for T, Initial residual = 8.25625e-13, Final residual = 8.25625e-13, No Iterations 0
ExecutionTime = 0.53 s  ClockTime = 1 s

Time = 0.26

DICPCG:  Solving for T, Initial residual = 0.00541709, Final residual = 5.19993e-15, No Iterations 1
DICPCG:  Solving for T, Initial residual = 3.23899e-12, Final residual = 3.23899e-12, No Iterations 0
DICPCG:  Solving for T, Initial residual = 3.23899e-12, Final residual = 3.23899e-12, No Iterations 0
ExecutionTime = 0.55 s  ClockTime = 1 s

Time = 0.265

DICPCG:  Solving for T, Initial residual = 0.00531347, Final residual = 5.10123e-15, No Iterations 1
DICPCG:  Solving for T, Initial residual = 4.76682e-12, Final residual = 4.76682e-12, No Iterations 0
DICPCG:  Solving for T, Initial residual = 4.76682e-12, Final residual = 4.76682e-12, No Iterations 0
ExecutionTime = 0.56 s  ClockTime = 1 s

Time = 0.27

DICPCG:  Solving for T, Initial residual = 0.00521374, Final residual = 5.0053e-15, No Iterations 1
DICPCG:  Solving for T, Initial residual = 2.33927e-12, Final residual = 2.33927e-12, No Iterations 0
DICPCG:  Solving for T, Initial residual = 2.33927e-12, Final residual = 2.33927e-12, No Iterations 0
ExecutionTime = 0.57 s  ClockTime = 1 s

Time = 0.275

DICPCG:  Solving for T, Initial residual = 0.00511768, Final residual = 4.91253e-15, No Iterations 1
DICPCG:  Solving for T, Initial residual = 3.06232e-12, Final residual = 3.06232e-12, No Iterations 0
DICPCG:  Solving for T, Initial residual = 3.06232e-12, Final residual = 3.06232e-12, No Iterations 0
ExecutionTime = 0.58 s  ClockTime = 1 s

Time = 0.28

DICPCG:  Solving for T, Initial residual = 0.0050251, Final residual = 4.82366e-15, No Iterations 1
DICPCG:  Solving for T, Initial residual = 2.25573e-12, Final residual = 2.25573e-12, No Iterations 0
DICPCG:  Solving for T, Initial residual = 2.25573e-12, Final residual = 2.25573e-12, No Iterations 0
ExecutionTime = 0.6 s  ClockTime = 1 s

Time = 0.285

DICPCG:  Solving for T, Initial residual = 0.00493581, Final residual = 4.7383e-15, No Iterations 1
DICPCG:  Solving for T, Initial residual = 2.21616e-12, Final residual = 2.21616e-12, No Iterations 0
DICPCG:  Solving for T, Initial residual = 2.21616e-12, Final residual = 2.21616e-12, No Iterations 0
ExecutionTime = 0.61 s  ClockTime = 1 s

Time = 0.29

DICPCG:  Solving for T, Initial residual = 0.00484964, Final residual = 4.65523e-15, No Iterations 1
DICPCG:  Solving for T, Initial residual = 3.62991e-12, Final residual = 3.62991e-12, No Iterations 0
DICPCG:  Solving for T, Initial residual = 3.62991e-12, Final residual = 3.62991e-12, No Iterations 0
ExecutionTime = 0.62 s  ClockTime = 1 s

Time = 0.295

DICPCG:  Solving for T, Initial residual = 0.00476642, Final residual = 4.57604e-15, No Iterations 1
DICPCG:  Solving for T, Initial residual = 1.42736e-12, Final residual = 1.42736e-12, No Iterations 0
DICPCG:  Solving for T, Initial residual = 1.42736e-12, Final residual = 1.42736e-12, No Iterations 0
ExecutionTime = 0.63 s  ClockTime = 1 s

Time = 0.3

DICPCG:  Solving for T, Initial residual = 0.00468601, Final residual = 4.49851e-15, No Iterations 1
DICPCG:  Solving for T, Initial residual = 1.40357e-12, Final residual = 1.40357e-12, No Iterations 0
DICPCG:  Solving for T, Initial residual = 1.40357e-12, Final residual = 1.40357e-12, No Iterations 0
ExecutionTime = 0.64 s  ClockTime = 1 s

Time = 0.305

DICPCG:  Solving for T, Initial residual = 0.00460827, Final residual = 4.42371e-15, No Iterations 1
DICPCG:  Solving for T, Initial residual = 2.76112e-12, Final residual = 2.76112e-12, No Iterations 0
DICPCG:  Solving for T, Initial residual = 2.76112e-12, Final residual = 2.76112e-12, No Iterations 0
ExecutionTime = 0.65 s  ClockTime = 1 s

Time = 0.31

DICPCG:  Solving for T, Initial residual = 0.00453307, Final residual = 4.35119e-15, No Iterations 1
DICPCG:  Solving for T, Initial residual = 1.35829e-12, Final residual = 1.35829e-12, No Iterations 0
DICPCG:  Solving for T, Initial residual = 1.35829e-12, Final residual = 1.35829e-12, No Iterations 0
ExecutionTime = 0.66 s  ClockTime = 1 s

Time = 0.315

DICPCG:  Solving for T, Initial residual = 0.00446028, Final residual = 4.28133e-15, No Iterations 1
DICPCG:  Solving for T, Initial residual = 2.0051e-12, Final residual = 2.0051e-12, No Iterations 0
DICPCG:  Solving for T, Initial residual = 2.0051e-12, Final residual = 2.0051e-12, No Iterations 0
ExecutionTime = 0.66 s  ClockTime = 1 s

Time = 0.32

DICPCG:  Solving for T, Initial residual = 0.00438979, Final residual = 4.21351e-15, No Iterations 1
DICPCG:  Solving for T, Initial residual = 2.63169e-12, Final residual = 2.63169e-12, No Iterations 0
DICPCG:  Solving for T, Initial residual = 2.63169e-12, Final residual = 2.63169e-12, No Iterations 0
ExecutionTime = 0.68 s  ClockTime = 1 s

Time = 0.325

DICPCG:  Solving for T, Initial residual = 0.0043215, Final residual = 4.14827e-15, No Iterations 1
DICPCG:  Solving for T, Initial residual = 1.2956e-12, Final residual = 1.2956e-12, No Iterations 0
DICPCG:  Solving for T, Initial residual = 1.2956e-12, Final residual = 1.2956e-12, No Iterations 0
ExecutionTime = 0.69 s  ClockTime = 1 s

Time = 0.33

DICPCG:  Solving for T, Initial residual = 0.00425529, Final residual = 4.08503e-15, No Iterations 1
DICPCG:  Solving for T, Initial residual = 1.27597e-12, Final residual = 1.27597e-12, No Iterations 0
DICPCG:  Solving for T, Initial residual = 1.27597e-12, Final residual = 1.27597e-12, No Iterations 0
ExecutionTime = 0.7 s  ClockTime = 1 s

Time = 0.335

DICPCG:  Solving for T, Initial residual = 0.00419109, Final residual = 4.02355e-15, No Iterations 1
DICPCG:  Solving for T, Initial residual = 1.25693e-12, Final residual = 1.25693e-12, No Iterations 0
DICPCG:  Solving for T, Initial residual = 1.25693e-12, Final residual = 1.25693e-12, No Iterations 0
ExecutionTime = 0.72 s  ClockTime = 1 s

Time = 0.34

DICPCG:  Solving for T, Initial residual = 0.00412879, Final residual = 3.9636e-15, No Iterations 1
DICPCG:  Solving for T, Initial residual = 1.23844e-12, Final residual = 1.23844e-12, No Iterations 0
DICPCG:  Solving for T, Initial residual = 1.23844e-12, Final residual = 1.23844e-12, No Iterations 0
ExecutionTime = 0.73 s  ClockTime = 1 s

Time = 0.345

DICPCG:  Solving for T, Initial residual = 0.00406832, Final residual = 3.9054e-15, No Iterations 1
DICPCG:  Solving for T, Initial residual = 1.83074e-12, Final residual = 1.83074e-12, No Iterations 0
DICPCG:  Solving for T, Initial residual = 1.83074e-12, Final residual = 1.83074e-12, No Iterations 0
ExecutionTime = 0.74 s  ClockTime = 1 s

Time = 0.35

DICPCG:  Solving for T, Initial residual = 0.0040096, Final residual = 3.84903e-15, No Iterations 1
DICPCG:  Solving for T, Initial residual = 1.20306e-12, Final residual = 1.20306e-12, No Iterations 0
DICPCG:  Solving for T, Initial residual = 1.20306e-12, Final residual = 1.20306e-12, No Iterations 0
ExecutionTime = 0.75 s  ClockTime = 1 s

Time = 0.355

DICPCG:  Solving for T, Initial residual = 0.00395254, Final residual = 3.79426e-15, No Iterations 1
DICPCG:  Solving for T, Initial residual = 1.18612e-12, Final residual = 1.18612e-12, No Iterations 0
DICPCG:  Solving for T, Initial residual = 1.18612e-12, Final residual = 1.18612e-12, No Iterations 0
ExecutionTime = 0.76 s  ClockTime = 1 s

Time = 0.36

DICPCG:  Solving for T, Initial residual = 0.00389709, Final residual = 3.74061e-15, No Iterations 1
DICPCG:  Solving for T, Initial residual = 5.84822e-13, Final residual = 5.84822e-13, No Iterations 0
DICPCG:  Solving for T, Initial residual = 5.84822e-13, Final residual = 5.84822e-13, No Iterations 0
ExecutionTime = 0.77 s  ClockTime = 1 s

Time = 0.365

DICPCG:  Solving for T, Initial residual = 0.00384317, Final residual = 3.68885e-15, No Iterations 1
DICPCG:  Solving for T, Initial residual = 1.15362e-12, Final residual = 1.15362e-12, No Iterations 0
DICPCG:  Solving for T, Initial residual = 1.15362e-12, Final residual = 1.15362e-12, No Iterations 0
ExecutionTime = 0.78 s  ClockTime = 1 s

Time = 0.37

DICPCG:  Solving for T, Initial residual = 0.00379073, Final residual = 3.63865e-15, No Iterations 1
DICPCG:  Solving for T, Initial residual = 1.13803e-12, Final residual = 1.13803e-12, No Iterations 0
DICPCG:  Solving for T, Initial residual = 1.13803e-12, Final residual = 1.13803e-12, No Iterations 0
ExecutionTime = 0.8 s  ClockTime = 1 s

Time = 0.375

DICPCG:  Solving for T, Initial residual = 0.00373969, Final residual = 3.58966e-15, No Iterations 1
DICPCG:  Solving for T, Initial residual = 1.68429e-12, Final residual = 1.68429e-12, No Iterations 0
DICPCG:  Solving for T, Initial residual = 1.68429e-12, Final residual = 1.68429e-12, No Iterations 0
ExecutionTime = 0.81 s  ClockTime = 1 s

Time = 0.38

DICPCG:  Solving for T, Initial residual = 0.00369001, Final residual = 3.54171e-15, No Iterations 1
DICPCG:  Solving for T, Initial residual = 5.54042e-13, Final residual = 5.54042e-13, No Iterations 0
DICPCG:  Solving for T, Initial residual = 5.54042e-13, Final residual = 5.54042e-13, No Iterations 0
ExecutionTime = 0.82 s  ClockTime = 1 s

Time = 0.385

DICPCG:  Solving for T, Initial residual = 0.00364164, Final residual = 3.49594e-15, No Iterations 1
DICPCG:  Solving for T, Initial residual = 3.28108e-12, Final residual = 3.28108e-12, No Iterations 0
DICPCG:  Solving for T, Initial residual = 3.28108e-12, Final residual = 3.28108e-12, No Iterations 0
ExecutionTime = 0.84 s  ClockTime = 1 s

Time = 0.39

DICPCG:  Solving for T, Initial residual = 0.00359451, Final residual = 3.45057e-15, No Iterations 1
DICPCG:  Solving for T, Initial residual = 1.61951e-12, Final residual = 1.61951e-12, No Iterations 0
DICPCG:  Solving for T, Initial residual = 1.61951e-12, Final residual = 1.61951e-12, No Iterations 0
ExecutionTime = 0.85 s  ClockTime = 1 s

Time = 0.395

DICPCG:  Solving for T, Initial residual = 0.00354859, Final residual = 3.40624e-15, No Iterations 1
DICPCG:  Solving for T, Initial residual = 2.66502e-12, Final residual = 2.66502e-12, No Iterations 0
DICPCG:  Solving for T, Initial residual = 2.66502e-12, Final residual = 2.66502e-12, No Iterations 0
ExecutionTime = 0.86 s  ClockTime = 1 s

Time = 0.4

DICPCG:  Solving for T, Initial residual = 0.00350383, Final residual = 3.36314e-15, No Iterations 1
DICPCG:  Solving for T, Initial residual = 1.57902e-12, Final residual = 1.57902e-12, No Iterations 0
DICPCG:  Solving for T, Initial residual = 1.57902e-12, Final residual = 1.57902e-12, No Iterations 0
ExecutionTime = 0.87 s  ClockTime = 1 s

Time = 0.405

DICPCG:  Solving for T, Initial residual = 0.00346018, Final residual = 3.32163e-15, No Iterations 1
DICPCG:  Solving for T, Initial residual = 1.55953e-12, Final residual = 1.55953e-12, No Iterations 0
DICPCG:  Solving for T, Initial residual = 1.55953e-12, Final residual = 1.55953e-12, No Iterations 0
ExecutionTime = 0.88 s  ClockTime = 1 s

Time = 0.41

DICPCG:  Solving for T, Initial residual = 0.00341761, Final residual = 3.28064e-15, No Iterations 1
DICPCG:  Solving for T, Initial residual = 1.02701e-12, Final residual = 1.02701e-12, No Iterations 0
DICPCG:  Solving for T, Initial residual = 1.02701e-12, Final residual = 1.02701e-12, No Iterations 0
ExecutionTime = 0.89 s  ClockTime = 1 s

Time = 0.415

DICPCG:  Solving for T, Initial residual = 0.00337607, Final residual = 3.24052e-15, No Iterations 1
DICPCG:  Solving for T, Initial residual = 1.52195e-12, Final residual = 1.52195e-12, No Iterations 0
DICPCG:  Solving for T, Initial residual = 1.52195e-12, Final residual = 1.52195e-12, No Iterations 0
ExecutionTime = 0.9 s  ClockTime = 1 s

Time = 0.42

DICPCG:  Solving for T, Initial residual = 0.00333553, Final residual = 3.20185e-15, No Iterations 1
DICPCG:  Solving for T, Initial residual = 1.50383e-12, Final residual = 1.50383e-12, No Iterations 0
DICPCG:  Solving for T, Initial residual = 1.50383e-12, Final residual = 1.50383e-12, No Iterations 0
ExecutionTime = 0.91 s  ClockTime = 1 s

Time = 0.425

DICPCG:  Solving for T, Initial residual = 0.00329595, Final residual = 3.16386e-15, No Iterations 1
DICPCG:  Solving for T, Initial residual = 1.48614e-12, Final residual = 1.48614e-12, No Iterations 0
DICPCG:  Solving for T, Initial residual = 1.48614e-12, Final residual = 1.48614e-12, No Iterations 0
ExecutionTime = 0.92 s  ClockTime = 1 s

Time = 0.43

DICPCG:  Solving for T, Initial residual = 0.0032573, Final residual = 3.12676e-15, No Iterations 1
DICPCG:  Solving for T, Initial residual = 4.8962e-12, Final residual = 4.8962e-12, No Iterations 0
DICPCG:  Solving for T, Initial residual = 4.8962e-12, Final residual = 4.8962e-12, No Iterations 0
ExecutionTime = 0.93 s  ClockTime = 1 s

Time = 0.435

DICPCG:  Solving for T, Initial residual = 0.00321955, Final residual = 3.09052e-15, No Iterations 1
DICPCG:  Solving for T, Initial residual = 4.83993e-13, Final residual = 4.83993e-13, No Iterations 0
DICPCG:  Solving for T, Initial residual = 4.83993e-13, Final residual = 4.83993e-13, No Iterations 0
ExecutionTime = 0.94 s  ClockTime = 1 s

Time = 0.44

DICPCG:  Solving for T, Initial residual = 0.00318266, Final residual = 3.05499e-15, No Iterations 1
DICPCG:  Solving for T, Initial residual = 1.43548e-12, Final residual = 1.43548e-12, No Iterations 0
DICPCG:  Solving for T, Initial residual = 1.43548e-12, Final residual = 1.43548e-12, No Iterations 0
ExecutionTime = 0.95 s  ClockTime = 1 s

Time = 0.445

DICPCG:  Solving for T, Initial residual = 0.00314661, Final residual = 3.02027e-15, No Iterations 1
DICPCG:  Solving for T, Initial residual = 9.46234e-13, Final residual = 9.46234e-13, No Iterations 0
DICPCG:  Solving for T, Initial residual = 9.46234e-13, Final residual = 9.46234e-13, No Iterations 0
ExecutionTime = 0.96 s  ClockTime = 1 s

Time = 0.45

DICPCG:  Solving for T, Initial residual = 0.00311136, Final residual = 2.98633e-15, No Iterations 1
DICPCG:  Solving for T, Initial residual = 9.3572e-13, Final residual = 9.3572e-13, No Iterations 0
DICPCG:  Solving for T, Initial residual = 9.3572e-13, Final residual = 9.3572e-13, No Iterations 0
ExecutionTime = 0.97 s  ClockTime = 1 s

Time = 0.455

DICPCG:  Solving for T, Initial residual = 0.0030769, Final residual = 2.95337e-15, No Iterations 1
DICPCG:  Solving for T, Initial residual = 1.38816e-12, Final residual = 1.38816e-12, No Iterations 0
DICPCG:  Solving for T, Initial residual = 1.38816e-12, Final residual = 1.38816e-12, No Iterations 0
ExecutionTime = 0.98 s  ClockTime = 1 s

Time = 0.46

DICPCG:  Solving for T, Initial residual = 0.00304319, Final residual = 2.92112e-15, No Iterations 1
DICPCG:  Solving for T, Initial residual = 9.15379e-13, Final residual = 9.15379e-13, No Iterations 0
DICPCG:  Solving for T, Initial residual = 9.15379e-13, Final residual = 9.15379e-13, No Iterations 0
ExecutionTime = 0.99 s  ClockTime = 1 s

Time = 0.465

DICPCG:  Solving for T, Initial residual = 0.00301021, Final residual = 2.88947e-15, No Iterations 1
DICPCG:  Solving for T, Initial residual = 9.05537e-13, Final residual = 9.05537e-13, No Iterations 0
DICPCG:  Solving for T, Initial residual = 9.05537e-13, Final residual = 9.05537e-13, No Iterations 0
ExecutionTime = 0.99 s  ClockTime = 1 s

Time = 0.47

DICPCG:  Solving for T, Initial residual = 0.00297794, Final residual = 2.85838e-15, No Iterations 1
DICPCG:  Solving for T, Initial residual = 3.13566e-12, Final residual = 3.13566e-12, No Iterations 0
DICPCG:  Solving for T, Initial residual = 3.13566e-12, Final residual = 3.13566e-12, No Iterations 0
ExecutionTime = 1.01 s  ClockTime = 1 s

Time = 0.475

DICPCG:  Solving for T, Initial residual = 0.00294635, Final residual = 2.82849e-15, No Iterations 1
DICPCG:  Solving for T, Initial residual = 2.21618e-12, Final residual = 2.21618e-12, No Iterations 0
DICPCG:  Solving for T, Initial residual = 2.21618e-12, Final residual = 2.21618e-12, No Iterations 0
ExecutionTime = 1.01 s  ClockTime = 1 s

Time = 0.48

DICPCG:  Solving for T, Initial residual = 0.00291543, Final residual = 2.79859e-15, No Iterations 1
DICPCG:  Solving for T, Initial residual = 1.31586e-12, Final residual = 1.31586e-12, No Iterations 0
DICPCG:  Solving for T, Initial residual = 1.31586e-12, Final residual = 1.31586e-12, No Iterations 0
ExecutionTime = 1.02 s  ClockTime = 1 s

Time = 0.485

DICPCG:  Solving for T, Initial residual = 0.00288515, Final residual = 2.76911e-15, No Iterations 1
DICPCG:  Solving for T, Initial residual = 8.68196e-13, Final residual = 8.68196e-13, No Iterations 0
DICPCG:  Solving for T, Initial residual = 8.68196e-13, Final residual = 8.68196e-13, No Iterations 0
ExecutionTime = 1.03 s  ClockTime = 1 s

Time = 0.49

DICPCG:  Solving for T, Initial residual = 0.00285549, Final residual = 2.74126e-15, No Iterations 1
DICPCG:  Solving for T, Initial residual = 0, Final residual = 0, No Iterations 0
DICPCG:  Solving for T, Initial residual = 0, Final residual = 0, No Iterations 0
ExecutionTime = 1.04 s  ClockTime = 1 s

Time = 0.495

DICPCG:  Solving for T, Initial residual = 0.00282643, Final residual = 2.71306e-15, No Iterations 1
DICPCG:  Solving for T, Initial residual = 8.50657e-13, Final residual = 8.50657e-13, No Iterations 0
DICPCG:  Solving for T, Initial residual = 8.50657e-13, Final residual = 8.50657e-13, No Iterations 0
ExecutionTime = 1.05 s  ClockTime = 1 s

Time = 0.5

DICPCG:  Solving for T, Initial residual = 0.00279796, Final residual = 2.68604e-15, No Iterations 1
DICPCG:  Solving for T, Initial residual = 1.26323e-12, Final residual = 1.26323e-12, No Iterations 0
DICPCG:  Solving for T, Initial residual = 1.26323e-12, Final residual = 1.26323e-12, No Iterations 0
ExecutionTime = 1.06 s  ClockTime = 1 s

Time = 0.505

DICPCG:  Solving for T, Initial residual = 0.00277006, Final residual = 2.65875e-15, No Iterations 1
DICPCG:  Solving for T, Initial residual = 2.50144e-12, Final residual = 2.50144e-12, No Iterations 0
DICPCG:  Solving for T, Initial residual = 2.50144e-12, Final residual = 2.50144e-12, No Iterations 0
ExecutionTime = 1.07 s  ClockTime = 1 s

Time = 0.51

DICPCG:  Solving for T, Initial residual = 0.00274271, Final residual = 2.6332e-15, No Iterations 1
DICPCG:  Solving for T, Initial residual = 8.25639e-13, Final residual = 8.25639e-13, No Iterations 0
DICPCG:  Solving for T, Initial residual = 8.25639e-13, Final residual = 8.25639e-13, No Iterations 0
ExecutionTime = 1.08 s  ClockTime = 1 s

Time = 0.515

DICPCG:  Solving for T, Initial residual = 0.00271589, Final residual = 2.60735e-15, No Iterations 1
DICPCG:  Solving for T, Initial residual = 1.02203e-12, Final residual = 1.02203e-12, No Iterations 0
DICPCG:  Solving for T, Initial residual = 1.02203e-12, Final residual = 1.02203e-12, No Iterations 0
ExecutionTime = 1.09 s  ClockTime = 1 s

Time = 0.52

DICPCG:  Solving for T, Initial residual = 0.00268959, Final residual = 2.5822e-15, No Iterations 1
DICPCG:  Solving for T, Initial residual = 2.0244e-12, Final residual = 2.0244e-12, No Iterations 0
DICPCG:  Solving for T, Initial residual = 2.0244e-12, Final residual = 2.0244e-12, No Iterations 0
ExecutionTime = 1.1 s  ClockTime = 1 s

Time = 0.525

DICPCG:  Solving for T, Initial residual = 0.0026638, Final residual = 2.55725e-15, No Iterations 1
DICPCG:  Solving for T, Initial residual = 1.20307e-12, Final residual = 1.20307e-12, No Iterations 0
DICPCG:  Solving for T, Initial residual = 1.20307e-12, Final residual = 1.20307e-12, No Iterations 0
ExecutionTime = 1.11 s  ClockTime = 1 s

Time = 0.53

DICPCG:  Solving for T, Initial residual = 0.0026385, Final residual = 2.53325e-15, No Iterations 1
DICPCG:  Solving for T, Initial residual = 2.38345e-12, Final residual = 2.38345e-12, No Iterations 0
DICPCG:  Solving for T, Initial residual = 2.38345e-12, Final residual = 2.38345e-12, No Iterations 0
ExecutionTime = 1.12 s  ClockTime = 1 s

Time = 0.535

DICPCG:  Solving for T, Initial residual = 0.00261367, Final residual = 2.50903e-15, No Iterations 1
DICPCG:  Solving for T, Initial residual = 7.87059e-13, Final residual = 7.87059e-13, No Iterations 0
DICPCG:  Solving for T, Initial residual = 7.87059e-13, Final residual = 7.87059e-13, No Iterations 0
ExecutionTime = 1.12 s  ClockTime = 1 s

Time = 0.54

DICPCG:  Solving for T, Initial residual = 0.00258931, Final residual = 2.48536e-15, No Iterations 1
DICPCG:  Solving for T, Initial residual = 3.89886e-13, Final residual = 3.89886e-13, No Iterations 0
DICPCG:  Solving for T, Initial residual = 3.89886e-13, Final residual = 3.89886e-13, No Iterations 0
ExecutionTime = 1.14 s  ClockTime = 1 s

Time = 0.545

DICPCG:  Solving for T, Initial residual = 0.00256539, Final residual = 2.46278e-15, No Iterations 1
DICPCG:  Solving for T, Initial residual = 7.72618e-13, Final residual = 7.72618e-13, No Iterations 0
DICPCG:  Solving for T, Initial residual = 7.72618e-13, Final residual = 7.72618e-13, No Iterations 0
ExecutionTime = 1.15 s  ClockTime = 1 s

Time = 0.55

DICPCG:  Solving for T, Initial residual = 0.00254192, Final residual = 2.43997e-15, No Iterations 1
DICPCG:  Solving for T, Initial residual = 1.91399e-12, Final residual = 1.91399e-12, No Iterations 0
DICPCG:  Solving for T, Initial residual = 1.91399e-12, Final residual = 1.91399e-12, No Iterations 0
ExecutionTime = 1.16 s  ClockTime = 1 s

Time = 0.555

DICPCG:  Solving for T, Initial residual = 0.00251887, Final residual = 2.41803e-15, No Iterations 1
DICPCG:  Solving for T, Initial residual = 3.79349e-13, Final residual = 3.79349e-13, No Iterations 0
DICPCG:  Solving for T, Initial residual = 3.79349e-13, Final residual = 3.79349e-13, No Iterations 0
ExecutionTime = 1.17 s  ClockTime = 1 s

Time = 0.56

DICPCG:  Solving for T, Initial residual = 0.00249623, Final residual = 2.39657e-15, No Iterations 1
DICPCG:  Solving for T, Initial residual = 1.50385e-12, Final residual = 1.50385e-12, No Iterations 0
DICPCG:  Solving for T, Initial residual = 1.50385e-12, Final residual = 1.50385e-12, No Iterations 0
ExecutionTime = 1.18 s  ClockTime = 1 s

Time = 0.565

DICPCG:  Solving for T, Initial residual = 0.002474, Final residual = 2.37514e-15, No Iterations 1
DICPCG:  Solving for T, Initial residual = 7.45269e-13, Final residual = 7.45269e-13, No Iterations 0
DICPCG:  Solving for T, Initial residual = 7.45269e-13, Final residual = 7.45269e-13, No Iterations 0
ExecutionTime = 1.18 s  ClockTime = 1 s

Time = 0.57

DICPCG:  Solving for T, Initial residual = 0.00245216, Final residual = 2.35426e-15, No Iterations 1
DICPCG:  Solving for T, Initial residual = 1.1081e-12, Final residual = 1.1081e-12, No Iterations 0
DICPCG:  Solving for T, Initial residual = 1.1081e-12, Final residual = 1.1081e-12, No Iterations 0
ExecutionTime = 1.2 s  ClockTime = 1 s

Time = 0.575

DICPCG:  Solving for T, Initial residual = 0.0024307, Final residual = 2.33357e-15, No Iterations 1
DICPCG:  Solving for T, Initial residual = 3.66154e-13, Final residual = 3.66154e-13, No Iterations 0
DICPCG:  Solving for T, Initial residual = 3.66154e-13, Final residual = 3.66154e-13, No Iterations 0
ExecutionTime = 1.21 s  ClockTime = 1 s

Time = 0.58

DICPCG:  Solving for T, Initial residual = 0.00240961, Final residual = 2.31315e-15, No Iterations 1
DICPCG:  Solving for T, Initial residual = 7.25996e-13, Final residual = 7.25996e-13, No Iterations 0
DICPCG:  Solving for T, Initial residual = 7.25996e-13, Final residual = 7.25996e-13, No Iterations 0
ExecutionTime = 1.22 s  ClockTime = 1 s

Time = 0.585

DICPCG:  Solving for T, Initial residual = 0.00238889, Final residual = 2.29352e-15, No Iterations 1
DICPCG:  Solving for T, Initial residual = 1.43958e-12, Final residual = 1.43958e-12, No Iterations 0
DICPCG:  Solving for T, Initial residual = 1.43958e-12, Final residual = 1.43958e-12, No Iterations 0
ExecutionTime = 1.23 s  ClockTime = 1 s

Time = 0.59

DICPCG:  Solving for T, Initial residual = 0.00236852, Final residual = 2.27379e-15, No Iterations 1
DICPCG:  Solving for T, Initial residual = 1.78423e-12, Final residual = 1.78423e-12, No Iterations 0
DICPCG:  Solving for T, Initial residual = 1.78423e-12, Final residual = 1.78423e-12, No Iterations 0
ExecutionTime = 1.24 s  ClockTime = 1 s

Time = 0.595

DICPCG:  Solving for T, Initial residual = 0.0023485, Final residual = 2.25431e-15, No Iterations 1
DICPCG:  Solving for T, Initial residual = 1.06154e-12, Final residual = 1.06154e-12, No Iterations 0
DICPCG:  Solving for T, Initial residual = 1.06154e-12, Final residual = 1.06154e-12, No Iterations 0
ExecutionTime = 1.25 s  ClockTime = 1 s

Time = 0.6

DICPCG:  Solving for T, Initial residual = 0.00232881, Final residual = 2.23558e-15, No Iterations 1
DICPCG:  Solving for T, Initial residual = 0, Final residual = 0, No Iterations 0
DICPCG:  Solving for T, Initial residual = 0, Final residual = 0, No Iterations 0
ExecutionTime = 1.26 s  ClockTime = 1 s

Time = 0.605

DICPCG:  Solving for T, Initial residual = 0.00230944, Final residual = 2.21708e-15, No Iterations 1
DICPCG:  Solving for T, Initial residual = 6.95997e-13, Final residual = 6.95997e-13, No Iterations 0
DICPCG:  Solving for T, Initial residual = 6.95997e-13, Final residual = 6.95997e-13, No Iterations 0
ExecutionTime = 1.27 s  ClockTime = 1 s

Time = 0.61

DICPCG:  Solving for T, Initial residual = 0.0022904, Final residual = 2.19863e-15, No Iterations 1
DICPCG:  Solving for T, Initial residual = 6.90292e-13, Final residual = 6.90292e-13, No Iterations 0
DICPCG:  Solving for T, Initial residual = 6.90292e-13, Final residual = 6.90292e-13, No Iterations 0
ExecutionTime = 1.28 s  ClockTime = 1 s

Time = 0.615

DICPCG:  Solving for T, Initial residual = 0.00227167, Final residual = 2.1809e-15, No Iterations 1
DICPCG:  Solving for T, Initial residual = 1.02702e-12, Final residual = 1.02702e-12, No Iterations 0
DICPCG:  Solving for T, Initial residual = 1.02702e-12, Final residual = 1.02702e-12, No Iterations 0
ExecutionTime = 1.29 s  ClockTime = 1 s

Time = 0.62

DICPCG:  Solving for T, Initial residual = 0.00225324, Final residual = 2.16321e-15, No Iterations 1
DICPCG:  Solving for T, Initial residual = 1.01874e-12, Final residual = 1.01874e-12, No Iterations 0
DICPCG:  Solving for T, Initial residual = 1.01874e-12, Final residual = 1.01874e-12, No Iterations 0
ExecutionTime = 1.3 s  ClockTime = 1 s

Time = 0.625

DICPCG:  Solving for T, Initial residual = 0.00223511, Final residual = 2.14588e-15, No Iterations 1
DICPCG:  Solving for T, Initial residual = 3.36863e-13, Final residual = 3.36863e-13, No Iterations 0
DICPCG:  Solving for T, Initial residual = 3.36863e-13, Final residual = 3.36863e-13, No Iterations 0
ExecutionTime = 1.31 s  ClockTime = 1 s

Time = 0.63

DICPCG:  Solving for T, Initial residual = 0.00221727, Final residual = 2.1286e-15, No Iterations 1
DICPCG:  Solving for T, Initial residual = 1.00257e-12, Final residual = 1.00257e-12, No Iterations 0
DICPCG:  Solving for T, Initial residual = 1.00257e-12, Final residual = 1.00257e-12, No Iterations 0
ExecutionTime = 1.32 s  ClockTime = 1 s

Time = 0.635

DICPCG:  Solving for T, Initial residual = 0.00219971, Final residual = 2.11182e-15, No Iterations 1
DICPCG:  Solving for T, Initial residual = 1.32623e-12, Final residual = 1.32623e-12, No Iterations 0
DICPCG:  Solving for T, Initial residual = 1.32623e-12, Final residual = 1.32623e-12, No Iterations 0
ExecutionTime = 1.33 s  ClockTime = 1 s

Time = 0.64

DICPCG:  Solving for T, Initial residual = 0.00218243, Final residual = 2.09499e-15, No Iterations 1
DICPCG:  Solving for T, Initial residual = 1.31587e-12, Final residual = 1.31587e-12, No Iterations 0
DICPCG:  Solving for T, Initial residual = 1.31587e-12, Final residual = 1.31587e-12, No Iterations 0
ExecutionTime = 1.34 s  ClockTime = 1 s

Time = 0.645

DICPCG:  Solving for T, Initial residual = 0.00216541, Final residual = 2.07866e-15, No Iterations 1
DICPCG:  Solving for T, Initial residual = 6.52836e-13, Final residual = 6.52836e-13, No Iterations 0
DICPCG:  Solving for T, Initial residual = 6.52836e-13, Final residual = 6.52836e-13, No Iterations 0
ExecutionTime = 1.35 s  ClockTime = 2 s

Time = 0.65

DICPCG:  Solving for T, Initial residual = 0.00214866, Final residual = 2.06274e-15, No Iterations 1
DICPCG:  Solving for T, Initial residual = 0, Final residual = 0, No Iterations 0
DICPCG:  Solving for T, Initial residual = 0, Final residual = 0, No Iterations 0
ExecutionTime = 1.36 s  ClockTime = 2 s

Time = 0.655

DICPCG:  Solving for T, Initial residual = 0.00213217, Final residual = 2.04675e-15, No Iterations 1
DICPCG:  Solving for T, Initial residual = 6.42869e-13, Final residual = 6.42869e-13, No Iterations 0
DICPCG:  Solving for T, Initial residual = 6.42869e-13, Final residual = 6.42869e-13, No Iterations 0
ExecutionTime = 1.38 s  ClockTime = 2 s

Time = 0.66

DICPCG:  Solving for T, Initial residual = 0.00211593, Final residual = 2.03124e-15, No Iterations 1
DICPCG:  Solving for T, Initial residual = 6.37999e-13, Final residual = 6.37999e-13, No Iterations 0
DICPCG:  Solving for T, Initial residual = 6.37999e-13, Final residual = 6.37999e-13, No Iterations 0
ExecutionTime = 1.39 s  ClockTime = 2 s

Time = 0.665

DICPCG:  Solving for T, Initial residual = 0.00209993, Final residual = 2.01588e-15, No Iterations 1
DICPCG:  Solving for T, Initial residual = 6.33203e-13, Final residual = 6.33203e-13, No Iterations 0
DICPCG:  Solving for T, Initial residual = 6.33203e-13, Final residual = 6.33203e-13, No Iterations 0
ExecutionTime = 1.4 s  ClockTime = 2 s

Time = 0.67

DICPCG:  Solving for T, Initial residual = 0.00208418, Final residual = 2.00075e-15, No Iterations 1
DICPCG:  Solving for T, Initial residual = 3.14239e-13, Final residual = 3.14239e-13, No Iterations 0
DICPCG:  Solving for T, Initial residual = 3.14239e-13, Final residual = 3.14239e-13, No Iterations 0
ExecutionTime = 1.41 s  ClockTime = 2 s

Time = 0.675

DICPCG:  Solving for T, Initial residual = 0.00206866, Final residual = 1.98593e-15, No Iterations 1
DICPCG:  Solving for T, Initial residual = 1.55956e-12, Final residual = 1.55956e-12, No Iterations 0
DICPCG:  Solving for T, Initial residual = 1.55956e-12, Final residual = 1.55956e-12, No Iterations 0
ExecutionTime = 1.42 s  ClockTime = 2 s

Time = 0.68

DICPCG:  Solving for T, Initial residual = 0.00205336, Final residual = 1.9711e-15, No Iterations 1
DICPCG:  Solving for T, Initial residual = 6.19235e-13, Final residual = 6.19235e-13, No Iterations 0
DICPCG:  Solving for T, Initial residual = 6.19235e-13, Final residual = 6.19235e-13, No Iterations 0
ExecutionTime = 1.43 s  ClockTime = 2 s

Time = 0.685

DICPCG:  Solving for T, Initial residual = 0.0020383, Final residual = 1.95671e-15, No Iterations 1
DICPCG:  Solving for T, Initial residual = 1.22943e-12, Final residual = 1.22943e-12, No Iterations 0
DICPCG:  Solving for T, Initial residual = 1.22943e-12, Final residual = 1.22943e-12, No Iterations 0
ExecutionTime = 1.44 s  ClockTime = 2 s

Time = 0.69

DICPCG:  Solving for T, Initial residual = 0.00202345, Final residual = 1.94231e-15, No Iterations 1
DICPCG:  Solving for T, Initial residual = 3.05131e-13, Final residual = 3.05131e-13, No Iterations 0
DICPCG:  Solving for T, Initial residual = 3.05131e-13, Final residual = 3.05131e-13, No Iterations 0
ExecutionTime = 1.45 s  ClockTime = 2 s

Time = 0.695

DICPCG:  Solving for T, Initial residual = 0.00200881, Final residual = 1.92856e-15, No Iterations 1
DICPCG:  Solving for T, Initial residual = 9.08807e-13, Final residual = 9.08807e-13, No Iterations 0
DICPCG:  Solving for T, Initial residual = 9.08807e-13, Final residual = 9.08807e-13, No Iterations 0
ExecutionTime = 1.45 s  ClockTime = 2 s

Time = 0.7

DICPCG:  Solving for T, Initial residual = 0.00199439, Final residual = 1.91471e-15, No Iterations 1
DICPCG:  Solving for T, Initial residual = 1.20309e-12, Final residual = 1.20309e-12, No Iterations 0
DICPCG:  Solving for T, Initial residual = 1.20309e-12, Final residual = 1.20309e-12, No Iterations 0
ExecutionTime = 1.47 s  ClockTime = 2 s

Time = 0.705

DICPCG:  Solving for T, Initial residual = 0.00198017, Final residual = 1.90085e-15, No Iterations 1
DICPCG:  Solving for T, Initial residual = 8.95917e-13, Final residual = 8.95917e-13, No Iterations 0
DICPCG:  Solving for T, Initial residual = 8.95917e-13, Final residual = 8.95917e-13, No Iterations 0
ExecutionTime = 1.47 s  ClockTime = 2 s

Time = 0.71

DICPCG:  Solving for T, Initial residual = 0.00196616, Final residual = 1.88746e-15, No Iterations 1
DICPCG:  Solving for T, Initial residual = 4.44804e-13, Final residual = 4.44804e-13, No Iterations 0
DICPCG:  Solving for T, Initial residual = 4.44804e-13, Final residual = 4.44804e-13, No Iterations 0
ExecutionTime = 1.48 s  ClockTime = 2 s

Time = 0.715

DICPCG:  Solving for T, Initial residual = 0.00195234, Final residual = 1.8742e-15, No Iterations 1
DICPCG:  Solving for T, Initial residual = 7.36156e-13, Final residual = 7.36156e-13, No Iterations 0
DICPCG:  Solving for T, Initial residual = 7.36156e-13, Final residual = 7.36156e-13, No Iterations 0
ExecutionTime = 1.49 s  ClockTime = 2 s

Time = 0.72

DICPCG:  Solving for T, Initial residual = 0.00193871, Final residual = 1.86098e-15, No Iterations 1
DICPCG:  Solving for T, Initial residual = 1.16967e-12, Final residual = 1.16967e-12, No Iterations 0
DICPCG:  Solving for T, Initial residual = 1.16967e-12, Final residual = 1.16967e-12, No Iterations 0
ExecutionTime = 1.5 s  ClockTime = 2 s

Time = 0.725

DICPCG:  Solving for T, Initial residual = 0.00192527, Final residual = 1.84822e-15, No Iterations 1
DICPCG:  Solving for T, Initial residual = 8.71203e-13, Final residual = 8.71203e-13, No Iterations 0
DICPCG:  Solving for T, Initial residual = 8.71203e-13, Final residual = 8.71203e-13, No Iterations 0
ExecutionTime = 1.51 s  ClockTime = 2 s

Time = 0.73

DICPCG:  Solving for T, Initial residual = 0.00191202, Final residual = 1.83536e-15, No Iterations 1
DICPCG:  Solving for T, Initial residual = 5.76824e-13, Final residual = 5.76824e-13, No Iterations 0
DICPCG:  Solving for T, Initial residual = 5.76824e-13, Final residual = 5.76824e-13, No Iterations 0
ExecutionTime = 1.52 s  ClockTime = 2 s

Time = 0.735

DICPCG:  Solving for T, Initial residual = 0.00189895, Final residual = 1.82288e-15, No Iterations 1
DICPCG:  Solving for T, Initial residual = 1.28903e-12, Final residual = 1.28903e-12, No Iterations 0
DICPCG:  Solving for T, Initial residual = 1.28903e-12, Final residual = 1.28903e-12, No Iterations 0
ExecutionTime = 1.53 s  ClockTime = 2 s

Time = 0.74

DICPCG:  Solving for T, Initial residual = 0.00188606, Final residual = 1.8105e-15, No Iterations 1
DICPCG:  Solving for T, Initial residual = 4.26772e-13, Final residual = 4.26772e-13, No Iterations 0
DICPCG:  Solving for T, Initial residual = 4.26772e-13, Final residual = 4.26772e-13, No Iterations 0
ExecutionTime = 1.54 s  ClockTime = 2 s

Time = 0.745

DICPCG:  Solving for T, Initial residual = 0.00187334, Final residual = 1.79829e-15, No Iterations 1
DICPCG:  Solving for T, Initial residual = 5.65211e-13, Final residual = 5.65211e-13, No Iterations 0
DICPCG:  Solving for T, Initial residual = 5.65211e-13, Final residual = 5.65211e-13, No Iterations 0
ExecutionTime = 1.55 s  ClockTime = 2 s

Time = 0.75

DICPCG:  Solving for T, Initial residual = 0.00186079, Final residual = 1.78632e-15, No Iterations 1
DICPCG:  Solving for T, Initial residual = 2.80721e-13, Final residual = 2.80721e-13, No Iterations 0
DICPCG:  Solving for T, Initial residual = 2.80721e-13, Final residual = 2.80721e-13, No Iterations 0
ExecutionTime = 1.57 s  ClockTime = 2 s

Time = 0.755

DICPCG:  Solving for T, Initial residual = 0.0018484, Final residual = 1.7743e-15, No Iterations 1
DICPCG:  Solving for T, Initial residual = 8.36587e-13, Final residual = 8.36587e-13, No Iterations 0
DICPCG:  Solving for T, Initial residual = 8.36587e-13, Final residual = 8.36587e-13, No Iterations 0
ExecutionTime = 1.57 s  ClockTime = 2 s

Time = 0.76

DICPCG:  Solving for T, Initial residual = 0.00183619, Final residual = 1.76263e-15, No Iterations 1
DICPCG:  Solving for T, Initial residual = 1.10811e-12, Final residual = 1.10811e-12, No Iterations 0
DICPCG:  Solving for T, Initial residual = 1.10811e-12, Final residual = 1.10811e-12, No Iterations 0
ExecutionTime = 1.58 s  ClockTime = 2 s

Time = 0.765

DICPCG:  Solving for T, Initial residual = 0.00182413, Final residual = 1.75119e-15, No Iterations 1
DICPCG:  Solving for T, Initial residual = 2.75217e-13, Final residual = 2.75217e-13, No Iterations 0
DICPCG:  Solving for T, Initial residual = 2.75217e-13, Final residual = 2.75217e-13, No Iterations 0
ExecutionTime = 1.61 s  ClockTime = 2 s

Time = 0.77

DICPCG:  Solving for T, Initial residual = 0.00181223, Final residual = 1.73944e-15, No Iterations 1
DICPCG:  Solving for T, Initial residual = 5.4686e-13, Final residual = 5.4686e-13, No Iterations 0
DICPCG:  Solving for T, Initial residual = 5.4686e-13, Final residual = 5.4686e-13, No Iterations 0
ExecutionTime = 1.61 s  ClockTime = 2 s

Time = 0.775

DICPCG:  Solving for T, Initial residual = 0.00180048, Final residual = 1.72836e-15, No Iterations 1
DICPCG:  Solving for T, Initial residual = 1.76583e-12, Final residual = 1.76583e-12, No Iterations 0
DICPCG:  Solving for T, Initial residual = 1.76583e-12, Final residual = 1.76583e-12, No Iterations 0
ExecutionTime = 1.63 s  ClockTime = 2 s

Time = 0.78

DICPCG:  Solving for T, Initial residual = 0.00178888, Final residual = 1.71742e-15, No Iterations 1
DICPCG:  Solving for T, Initial residual = 9.44737e-13, Final residual = 9.44737e-13, No Iterations 0
DICPCG:  Solving for T, Initial residual = 9.44737e-13, Final residual = 9.44737e-13, No Iterations 0
ExecutionTime = 1.63 s  ClockTime = 2 s

Time = 0.785

DICPCG:  Solving for T, Initial residual = 0.00177744, Final residual = 1.70624e-15, No Iterations 1
DICPCG:  Solving for T, Initial residual = 1.34103e-13, Final residual = 1.34103e-13, No Iterations 0
DICPCG:  Solving for T, Initial residual = 1.34103e-13, Final residual = 1.34103e-13, No Iterations 0
ExecutionTime = 1.64 s  ClockTime = 2 s

Time = 0.79

DICPCG:  Solving for T, Initial residual = 0.00176614, Final residual = 1.69552e-15, No Iterations 1
DICPCG:  Solving for T, Initial residual = 1.86556e-12, Final residual = 1.86556e-12, No Iterations 0
DICPCG:  Solving for T, Initial residual = 1.86556e-12, Final residual = 1.86556e-12, No Iterations 0
ExecutionTime = 1.65 s  ClockTime = 2 s

Time = 0.795

DICPCG:  Solving for T, Initial residual = 0.00175498, Final residual = 1.68449e-15, No Iterations 1
DICPCG:  Solving for T, Initial residual = 9.26913e-13, Final residual = 9.26913e-13, No Iterations 0
DICPCG:  Solving for T, Initial residual = 9.26913e-13, Final residual = 9.26913e-13, No Iterations 0
ExecutionTime = 1.66 s  ClockTime = 2 s

Time = 0.8

DICPCG:  Solving for T, Initial residual = 0.00174396, Final residual = 1.67436e-15, No Iterations 1
DICPCG:  Solving for T, Initial residual = 5.26354e-13, Final residual = 5.26354e-13, No Iterations 0
DICPCG:  Solving for T, Initial residual = 5.26354e-13, Final residual = 5.26354e-13, No Iterations 0
ExecutionTime = 1.67 s  ClockTime = 2 s

Time = 0.805

DICPCG:  Solving for T, Initial residual = 0.00173308, Final residual = 1.66366e-15, No Iterations 1
DICPCG:  Solving for T, Initial residual = 1.04617e-12, Final residual = 1.04617e-12, No Iterations 0
DICPCG:  Solving for T, Initial residual = 1.04617e-12, Final residual = 1.04617e-12, No Iterations 0
ExecutionTime = 1.68 s  ClockTime = 2 s

Time = 0.81

DICPCG:  Solving for T, Initial residual = 0.00172233, Final residual = 1.65341e-15, No Iterations 1
DICPCG:  Solving for T, Initial residual = 6.4982e-13, Final residual = 6.4982e-13, No Iterations 0
DICPCG:  Solving for T, Initial residual = 6.4982e-13, Final residual = 6.4982e-13, No Iterations 0
ExecutionTime = 1.69 s  ClockTime = 2 s

Time = 0.815

DICPCG:  Solving for T, Initial residual = 0.00171172, Final residual = 1.64316e-15, No Iterations 1
DICPCG:  Solving for T, Initial residual = 7.75001e-13, Final residual = 7.75001e-13, No Iterations 0
DICPCG:  Solving for T, Initial residual = 7.75001e-13, Final residual = 7.75001e-13, No Iterations 0
ExecutionTime = 1.7 s  ClockTime = 2 s

Time = 0.82

DICPCG:  Solving for T, Initial residual = 0.00170123, Final residual = 1.63322e-15, No Iterations 1
DICPCG:  Solving for T, Initial residual = 1.28379e-13, Final residual = 1.28379e-13, No Iterations 0
DICPCG:  Solving for T, Initial residual = 1.28379e-13, Final residual = 1.28379e-13, No Iterations 0
ExecutionTime = 1.71 s  ClockTime = 2 s

Time = 0.825

DICPCG:  Solving for T, Initial residual = 0.00169088, Final residual = 1.62309e-15, No Iterations 1
DICPCG:  Solving for T, Initial residual = 7.65607e-13, Final residual = 7.65607e-13, No Iterations 0
DICPCG:  Solving for T, Initial residual = 7.65607e-13, Final residual = 7.65607e-13, No Iterations 0
ExecutionTime = 1.72 s  ClockTime = 2 s

Time = 0.83

DICPCG:  Solving for T, Initial residual = 0.00168065, Final residual = 1.61346e-15, No Iterations 1
DICPCG:  Solving for T, Initial residual = 1.01466e-12, Final residual = 1.01466e-12, No Iterations 0
DICPCG:  Solving for T, Initial residual = 1.01466e-12, Final residual = 1.01466e-12, No Iterations 0
ExecutionTime = 1.73 s  ClockTime = 2 s

Time = 0.835

DICPCG:  Solving for T, Initial residual = 0.00167054, Final residual = 1.60351e-15, No Iterations 1
DICPCG:  Solving for T, Initial residual = 2.52146e-13, Final residual = 2.52146e-13, No Iterations 0
DICPCG:  Solving for T, Initial residual = 2.52146e-13, Final residual = 2.52146e-13, No Iterations 0
ExecutionTime = 1.74 s  ClockTime = 2 s

Time = 0.84

DICPCG:  Solving for T, Initial residual = 0.00166055, Final residual = 1.59411e-15, No Iterations 1
DICPCG:  Solving for T, Initial residual = 5.01291e-13, Final residual = 5.01291e-13, No Iterations 0
DICPCG:  Solving for T, Initial residual = 5.01291e-13, Final residual = 5.01291e-13, No Iterations 0
ExecutionTime = 1.74 s  ClockTime = 2 s

Time = 0.845

DICPCG:  Solving for T, Initial residual = 0.00165069, Final residual = 1.58463e-15, No Iterations 1
DICPCG:  Solving for T, Initial residual = 8.72068e-13, Final residual = 8.72068e-13, No Iterations 0
DICPCG:  Solving for T, Initial residual = 8.72068e-13, Final residual = 8.72068e-13, No Iterations 0
ExecutionTime = 1.76 s  ClockTime = 2 s

Time = 0.85

DICPCG:  Solving for T, Initial residual = 0.00164093, Final residual = 1.57521e-15, No Iterations 1
DICPCG:  Solving for T, Initial residual = 1.36233e-12, Final residual = 1.36233e-12, No Iterations 0
DICPCG:  Solving for T, Initial residual = 1.36233e-12, Final residual = 1.36233e-12, No Iterations 0
ExecutionTime = 1.76 s  ClockTime = 2 s

Time = 0.855

DICPCG:  Solving for T, Initial residual = 0.0016313, Final residual = 1.56584e-15, No Iterations 1
DICPCG:  Solving for T, Initial residual = 7.38745e-13, Final residual = 7.38745e-13, No Iterations 0
DICPCG:  Solving for T, Initial residual = 7.38745e-13, Final residual = 7.38745e-13, No Iterations 0
ExecutionTime = 1.77 s  ClockTime = 2 s

Time = 0.86

DICPCG:  Solving for T, Initial residual = 0.00162177, Final residual = 1.557e-15, No Iterations 1
DICPCG:  Solving for T, Initial residual = 0, Final residual = 0, No Iterations 0
DICPCG:  Solving for T, Initial residual = 0, Final residual = 0, No Iterations 0
ExecutionTime = 1.78 s  ClockTime = 2 s

Time = 0.865

DICPCG:  Solving for T, Initial residual = 0.00161236, Final residual = 1.54773e-15, No Iterations 1
DICPCG:  Solving for T, Initial residual = 8.51906e-13, Final residual = 8.51906e-13, No Iterations 0
DICPCG:  Solving for T, Initial residual = 8.51906e-13, Final residual = 8.51906e-13, No Iterations 0
ExecutionTime = 1.8 s  ClockTime = 2 s

Time = 0.87

DICPCG:  Solving for T, Initial residual = 0.00160305, Final residual = 1.53885e-15, No Iterations 1
DICPCG:  Solving for T, Initial residual = 1.81502e-12, Final residual = 1.81502e-12, No Iterations 0
DICPCG:  Solving for T, Initial residual = 1.81502e-12, Final residual = 1.81502e-12, No Iterations 0
ExecutionTime = 1.81 s  ClockTime = 2 s

Time = 0.875

DICPCG:  Solving for T, Initial residual = 0.00159385, Final residual = 1.53002e-15, No Iterations 1
DICPCG:  Solving for T, Initial residual = 1.2031e-12, Final residual = 1.2031e-12, No Iterations 0
DICPCG:  Solving for T, Initial residual = 1.2031e-12, Final residual = 1.2031e-12, No Iterations 0
ExecutionTime = 1.82 s  ClockTime = 2 s

Time = 0.88

DICPCG:  Solving for T, Initial residual = 0.00158476, Final residual = 1.52129e-15, No Iterations 1
DICPCG:  Solving for T, Initial residual = 9.57012e-13, Final residual = 9.57012e-13, No Iterations 0
DICPCG:  Solving for T, Initial residual = 9.57012e-13, Final residual = 9.57012e-13, No Iterations 0
ExecutionTime = 1.83 s  ClockTime = 2 s

Time = 0.885

DICPCG:  Solving for T, Initial residual = 0.00157577, Final residual = 1.51249e-15, No Iterations 1
DICPCG:  Solving for T, Initial residual = 1.66531e-12, Final residual = 1.66531e-12, No Iterations 0
DICPCG:  Solving for T, Initial residual = 1.66531e-12, Final residual = 1.66531e-12, No Iterations 0
ExecutionTime = 1.84 s  ClockTime = 2 s

Time = 0.89

DICPCG:  Solving for T, Initial residual = 0.00156688, Final residual = 1.50419e-15, No Iterations 1
DICPCG:  Solving for T, Initial residual = 5.91412e-13, Final residual = 5.91412e-13, No Iterations 0
DICPCG:  Solving for T, Initial residual = 5.91412e-13, Final residual = 5.91412e-13, No Iterations 0
ExecutionTime = 1.85 s  ClockTime = 2 s

Time = 0.895

DICPCG:  Solving for T, Initial residual = 0.00155809, Final residual = 1.49569e-15, No Iterations 1
DICPCG:  Solving for T, Initial residual = 5.88109e-13, Final residual = 5.88109e-13, No Iterations 0
DICPCG:  Solving for T, Initial residual = 5.88109e-13, Final residual = 5.88109e-13, No Iterations 0
ExecutionTime = 1.86 s  ClockTime = 2 s

Time = 0.9

DICPCG:  Solving for T, Initial residual = 0.0015494, Final residual = 1.4873e-15, No Iterations 1
DICPCG:  Solving for T, Initial residual = 2.33937e-13, Final residual = 2.33937e-13, No Iterations 0
DICPCG:  Solving for T, Initial residual = 2.33937e-13, Final residual = 2.33937e-13, No Iterations 0
ExecutionTime = 1.87 s  ClockTime = 2 s

Time = 0.905

DICPCG:  Solving for T, Initial residual = 0.00154081, Final residual = 1.4791e-15, No Iterations 1
DICPCG:  Solving for T, Initial residual = 4.65288e-13, Final residual = 4.65288e-13, No Iterations 0
DICPCG:  Solving for T, Initial residual = 4.65288e-13, Final residual = 4.65288e-13, No Iterations 0
ExecutionTime = 1.88 s  ClockTime = 2 s

Time = 0.91

DICPCG:  Solving for T, Initial residual = 0.00153231, Final residual = 1.47094e-15, No Iterations 1
DICPCG:  Solving for T, Initial residual = 4.62732e-13, Final residual = 4.62732e-13, No Iterations 0
DICPCG:  Solving for T, Initial residual = 4.62732e-13, Final residual = 4.62732e-13, No Iterations 0
ExecutionTime = 1.89 s  ClockTime = 2 s

Time = 0.915

DICPCG:  Solving for T, Initial residual = 0.0015239, Final residual = 1.46287e-15, No Iterations 1
DICPCG:  Solving for T, Initial residual = 6.90305e-13, Final residual = 6.90305e-13, No Iterations 0
DICPCG:  Solving for T, Initial residual = 6.90305e-13, Final residual = 6.90305e-13, No Iterations 0
ExecutionTime = 1.9 s  ClockTime = 2 s

Time = 0.92

DICPCG:  Solving for T, Initial residual = 0.00151559, Final residual = 1.45495e-15, No Iterations 1
DICPCG:  Solving for T, Initial residual = 1.14426e-12, Final residual = 1.14426e-12, No Iterations 0
DICPCG:  Solving for T, Initial residual = 1.14426e-12, Final residual = 1.14426e-12, No Iterations 0
ExecutionTime = 1.91 s  ClockTime = 2 s

Time = 0.925

DICPCG:  Solving for T, Initial residual = 0.00150736, Final residual = 1.44689e-15, No Iterations 1
DICPCG:  Solving for T, Initial residual = 4.55229e-13, Final residual = 4.55229e-13, No Iterations 0
DICPCG:  Solving for T, Initial residual = 4.55229e-13, Final residual = 4.55229e-13, No Iterations 0
ExecutionTime = 1.92 s  ClockTime = 2 s

Time = 0.93

DICPCG:  Solving for T, Initial residual = 0.00149923, Final residual = 1.43903e-15, No Iterations 1
DICPCG:  Solving for T, Initial residual = 1.13195e-13, Final residual = 1.13195e-13, No Iterations 0
DICPCG:  Solving for T, Initial residual = 1.13195e-13, Final residual = 1.13195e-13, No Iterations 0
ExecutionTime = 1.94 s  ClockTime = 2 s

Time = 0.935

DICPCG:  Solving for T, Initial residual = 0.00149118, Final residual = 1.43135e-15, No Iterations 1
DICPCG:  Solving for T, Initial residual = 5.6295e-13, Final residual = 5.6295e-13, No Iterations 0
DICPCG:  Solving for T, Initial residual = 5.6295e-13, Final residual = 5.6295e-13, No Iterations 0
ExecutionTime = 1.95 s  ClockTime = 2 s

Time = 0.94

DICPCG:  Solving for T, Initial residual = 0.00148321, Final residual = 1.42382e-15, No Iterations 1
DICPCG:  Solving for T, Initial residual = 7.83938e-13, Final residual = 7.83938e-13, No Iterations 0
DICPCG:  Solving for T, Initial residual = 7.83938e-13, Final residual = 7.83938e-13, No Iterations 0
ExecutionTime = 1.96 s  ClockTime = 2 s

Time = 0.945

DICPCG:  Solving for T, Initial residual = 0.00147534, Final residual = 1.41647e-15, No Iterations 1
DICPCG:  Solving for T, Initial residual = 2.22797e-13, Final residual = 2.22797e-13, No Iterations 0
DICPCG:  Solving for T, Initial residual = 2.22797e-13, Final residual = 2.22797e-13, No Iterations 0
ExecutionTime = 1.97 s  ClockTime = 2 s

Time = 0.95

DICPCG:  Solving for T, Initial residual = 0.00146754, Final residual = 1.40877e-15, No Iterations 1
DICPCG:  Solving for T, Initial residual = 1.21894e-12, Final residual = 1.21894e-12, No Iterations 0
DICPCG:  Solving for T, Initial residual = 1.21894e-12, Final residual = 1.21894e-12, No Iterations 0
ExecutionTime = 1.99 s  ClockTime = 2 s

Time = 0.955

DICPCG:  Solving for T, Initial residual = 0.00145983, Final residual = 1.40142e-15, No Iterations 1
DICPCG:  Solving for T, Initial residual = 1.10232e-12, Final residual = 1.10232e-12, No Iterations 0
DICPCG:  Solving for T, Initial residual = 1.10232e-12, Final residual = 1.10232e-12, No Iterations 0
ExecutionTime = 2 s  ClockTime = 2 s

Time = 0.96

DICPCG:  Solving for T, Initial residual = 0.0014522, Final residual = 1.39405e-15, No Iterations 1
DICPCG:  Solving for T, Initial residual = 1.09658e-12, Final residual = 1.09658e-12, No Iterations 0
DICPCG:  Solving for T, Initial residual = 1.09658e-12, Final residual = 1.09658e-12, No Iterations 0
ExecutionTime = 2.01 s  ClockTime = 2 s

Time = 0.965

DICPCG:  Solving for T, Initial residual = 0.00144464, Final residual = 1.3869e-15, No Iterations 1
DICPCG:  Solving for T, Initial residual = 5.4545e-13, Final residual = 5.4545e-13, No Iterations 0
DICPCG:  Solving for T, Initial residual = 5.4545e-13, Final residual = 5.4545e-13, No Iterations 0
ExecutionTime = 2.01 s  ClockTime = 2 s

Time = 0.97

DICPCG:  Solving for T, Initial residual = 0.00143717, Final residual = 1.37978e-15, No Iterations 1
DICPCG:  Solving for T, Initial residual = 4.34111e-13, Final residual = 4.34111e-13, No Iterations 0
DICPCG:  Solving for T, Initial residual = 4.34111e-13, Final residual = 4.34111e-13, No Iterations 0
ExecutionTime = 2.02 s  ClockTime = 2 s

Time = 0.975

DICPCG:  Solving for T, Initial residual = 0.00142977, Final residual = 1.37278e-15, No Iterations 1
DICPCG:  Solving for T, Initial residual = 9.71741e-13, Final residual = 9.71741e-13, No Iterations 0
DICPCG:  Solving for T, Initial residual = 9.71741e-13, Final residual = 9.71741e-13, No Iterations 0
ExecutionTime = 2.03 s  ClockTime = 2 s

Time = 0.98

DICPCG:  Solving for T, Initial residual = 0.00142245, Final residual = 1.36549e-15, No Iterations 1
DICPCG:  Solving for T, Initial residual = 2.14841e-13, Final residual = 2.14841e-13, No Iterations 0
DICPCG:  Solving for T, Initial residual = 2.14841e-13, Final residual = 2.14841e-13, No Iterations 0
ExecutionTime = 2.03 s  ClockTime = 2 s

Time = 0.985

DICPCG:  Solving for T, Initial residual = 0.0014152, Final residual = 1.35859e-15, No Iterations 1
DICPCG:  Solving for T, Initial residual = 1.49625e-12, Final residual = 1.49625e-12, No Iterations 0
DICPCG:  Solving for T, Initial residual = 1.49625e-12, Final residual = 1.49625e-12, No Iterations 0
ExecutionTime = 2.05 s  ClockTime = 2 s

Time = 0.99

DICPCG:  Solving for T, Initial residual = 0.00140803, Final residual = 1.3517e-15, No Iterations 1
DICPCG:  Solving for T, Initial residual = 4.25342e-13, Final residual = 4.25342e-13, No Iterations 0
DICPCG:  Solving for T, Initial residual = 4.25342e-13, Final residual = 4.25342e-13, No Iterations 0
ExecutionTime = 2.06 s  ClockTime = 2 s

Time = 0.995

DICPCG:  Solving for T, Initial residual = 0.00140093, Final residual = 1.34493e-15, No Iterations 1
DICPCG:  Solving for T, Initial residual = 8.46409e-13, Final residual = 8.46409e-13, No Iterations 0
DICPCG:  Solving for T, Initial residual = 8.46409e-13, Final residual = 8.46409e-13, No Iterations 0
ExecutionTime = 2.07 s  ClockTime = 2 s

Time = 1

DICPCG:  Solving for T, Initial residual = 0.0013939, Final residual = 1.33798e-15, No Iterations 1
DICPCG:  Solving for T, Initial residual = 6.31633e-13, Final residual = 6.31633e-13, No Iterations 0
DICPCG:  Solving for T, Initial residual = 6.31633e-13, Final residual = 6.31633e-13, No Iterations 0
ExecutionTime = 2.09 s  ClockTime = 2 s

Time = 1.005

DICPCG:  Solving for T, Initial residual = 0.00138694, Final residual = 1.3313e-15, No Iterations 1
DICPCG:  Solving for T, Initial residual = 4.18994e-13, Final residual = 4.18994e-13, No Iterations 0
DICPCG:  Solving for T, Initial residual = 4.18994e-13, Final residual = 4.18994e-13, No Iterations 0
ExecutionTime = 2.1 s  ClockTime = 2 s

Time = 1.01

DICPCG:  Solving for T, Initial residual = 0.00138005, Final residual = 1.32484e-15, No Iterations 1
DICPCG:  Solving for T, Initial residual = 2.0846e-13, Final residual = 2.0846e-13, No Iterations 0
DICPCG:  Solving for T, Initial residual = 2.0846e-13, Final residual = 2.0846e-13, No Iterations 0
ExecutionTime = 2.11 s  ClockTime = 2 s

Time = 1.015

DICPCG:  Solving for T, Initial residual = 0.00137322, Final residual = 1.31829e-15, No Iterations 1
DICPCG:  Solving for T, Initial residual = 2.07433e-13, Final residual = 2.07433e-13, No Iterations 0
DICPCG:  Solving for T, Initial residual = 2.07433e-13, Final residual = 2.07433e-13, No Iterations 0
ExecutionTime = 2.12 s  ClockTime = 2 s

Time = 1.02

DICPCG:  Solving for T, Initial residual = 0.00136647, Final residual = 1.31171e-15, No Iterations 1
DICPCG:  Solving for T, Initial residual = 1.13529e-12, Final residual = 1.13529e-12, No Iterations 0
DICPCG:  Solving for T, Initial residual = 1.13529e-12, Final residual = 1.13529e-12, No Iterations 0
ExecutionTime = 2.13 s  ClockTime = 2 s

Time = 1.025

DICPCG:  Solving for T, Initial residual = 0.00135978, Final residual = 1.30538e-15, No Iterations 1
DICPCG:  Solving for T, Initial residual = 9.24342e-13, Final residual = 9.24342e-13, No Iterations 0
DICPCG:  Solving for T, Initial residual = 9.24342e-13, Final residual = 9.24342e-13, No Iterations 0
ExecutionTime = 2.14 s  ClockTime = 2 s

Time = 1.03

DICPCG:  Solving for T, Initial residual = 0.00135316, Final residual = 1.29902e-15, No Iterations 1
DICPCG:  Solving for T, Initial residual = 7.15443e-13, Final residual = 7.15443e-13, No Iterations 0
DICPCG:  Solving for T, Initial residual = 7.15443e-13, Final residual = 7.15443e-13, No Iterations 0
ExecutionTime = 2.15 s  ClockTime = 2 s

Time = 1.035

DICPCG:  Solving for T, Initial residual = 0.0013466, Final residual = 1.29273e-15, No Iterations 1
DICPCG:  Solving for T, Initial residual = 9.15412e-13, Final residual = 9.15412e-13, No Iterations 0
DICPCG:  Solving for T, Initial residual = 9.15412e-13, Final residual = 9.15412e-13, No Iterations 0
ExecutionTime = 2.17 s  ClockTime = 2 s

Time = 1.04

DICPCG:  Solving for T, Initial residual = 0.0013401, Final residual = 1.28635e-15, No Iterations 1
DICPCG:  Solving for T, Initial residual = 2.02447e-13, Final residual = 2.02447e-13, No Iterations 0
DICPCG:  Solving for T, Initial residual = 2.02447e-13, Final residual = 2.02447e-13, No Iterations 0
ExecutionTime = 2.18 s  ClockTime = 2 s

Time = 1.045

DICPCG:  Solving for T, Initial residual = 0.00133366, Final residual = 1.28036e-15, No Iterations 1
DICPCG:  Solving for T, Initial residual = 5.03696e-13, Final residual = 5.03696e-13, No Iterations 0
DICPCG:  Solving for T, Initial residual = 5.03696e-13, Final residual = 5.03696e-13, No Iterations 0
ExecutionTime = 2.19 s  ClockTime = 2 s

Time = 1.05

DICPCG:  Solving for T, Initial residual = 0.00132729, Final residual = 1.27405e-15, No Iterations 1
DICPCG:  Solving for T, Initial residual = 9.02335e-13, Final residual = 9.02335e-13, No Iterations 0
DICPCG:  Solving for T, Initial residual = 9.02335e-13, Final residual = 9.02335e-13, No Iterations 0
ExecutionTime = 2.19 s  ClockTime = 2 s

Time = 1.055

DICPCG:  Solving for T, Initial residual = 0.00132098, Final residual = 1.26814e-15, No Iterations 1
DICPCG:  Solving for T, Initial residual = 7.98275e-13, Final residual = 7.98275e-13, No Iterations 0
DICPCG:  Solving for T, Initial residual = 7.98275e-13, Final residual = 7.98275e-13, No Iterations 0
ExecutionTime = 2.21 s  ClockTime = 2 s

Time = 1.06

DICPCG:  Solving for T, Initial residual = 0.00131473, Final residual = 1.26209e-15, No Iterations 1
DICPCG:  Solving for T, Initial residual = 6.95196e-13, Final residual = 6.95196e-13, No Iterations 0
DICPCG:  Solving for T, Initial residual = 6.95196e-13, Final residual = 6.95196e-13, No Iterations 0
ExecutionTime = 2.22 s  ClockTime = 2 s

Time = 1.065

DICPCG:  Solving for T, Initial residual = 0.00130853, Final residual = 1.25624e-15, No Iterations 1
DICPCG:  Solving for T, Initial residual = 3.9539e-13, Final residual = 3.9539e-13, No Iterations 0
DICPCG:  Solving for T, Initial residual = 3.9539e-13, Final residual = 3.9539e-13, No Iterations 0
ExecutionTime = 2.24 s  ClockTime = 2 s

Time = 1.07

DICPCG:  Solving for T, Initial residual = 0.0013024, Final residual = 1.25025e-15, No Iterations 1
DICPCG:  Solving for T, Initial residual = 4.91928e-13, Final residual = 4.91928e-13, No Iterations 0
DICPCG:  Solving for T, Initial residual = 4.91928e-13, Final residual = 4.91928e-13, No Iterations 0
ExecutionTime = 2.25 s  ClockTime = 2 s

Time = 1.075

DICPCG:  Solving for T, Initial residual = 0.00129632, Final residual = 1.24428e-15, No Iterations 1
DICPCG:  Solving for T, Initial residual = 7.83424e-13, Final residual = 7.83424e-13, No Iterations 0
DICPCG:  Solving for T, Initial residual = 7.83424e-13, Final residual = 7.83424e-13, No Iterations 0
ExecutionTime = 2.26 s  ClockTime = 2 s

Time = 1.08

DICPCG:  Solving for T, Initial residual = 0.0012903, Final residual = 1.23864e-15, No Iterations 1
DICPCG:  Solving for T, Initial residual = 1.1697e-12, Final residual = 1.1697e-12, No Iterations 0
DICPCG:  Solving for T, Initial residual = 1.1697e-12, Final residual = 1.1697e-12, No Iterations 0
ExecutionTime = 2.26 s  ClockTime = 2 s

Time = 1.085

DICPCG:  Solving for T, Initial residual = 0.00128433, Final residual = 1.23296e-15, No Iterations 1
DICPCG:  Solving for T, Initial residual = 7.76204e-13, Final residual = 7.76204e-13, No Iterations 0
DICPCG:  Solving for T, Initial residual = 7.76204e-13, Final residual = 7.76204e-13, No Iterations 0
ExecutionTime = 2.28 s  ClockTime = 2 s

Time = 1.09

DICPCG:  Solving for T, Initial residual = 0.00127842, Final residual = 1.2271e-15, No Iterations 1
DICPCG:  Solving for T, Initial residual = 3.86322e-13, Final residual = 3.86322e-13, No Iterations 0
DICPCG:  Solving for T, Initial residual = 3.86322e-13, Final residual = 3.86322e-13, No Iterations 0
ExecutionTime = 2.29 s  ClockTime = 2 s

Time = 1.095

DICPCG:  Solving for T, Initial residual = 0.00127256, Final residual = 1.22157e-15, No Iterations 1
DICPCG:  Solving for T, Initial residual = 6.72976e-13, Final residual = 6.72976e-13, No Iterations 0
DICPCG:  Solving for T, Initial residual = 6.72976e-13, Final residual = 6.72976e-13, No Iterations 0
ExecutionTime = 2.3 s  ClockTime = 2 s

Time = 1.1

DICPCG:  Solving for T, Initial residual = 0.00126676, Final residual = 1.21605e-15, No Iterations 1
DICPCG:  Solving for T, Initial residual = 3.8281e-13, Final residual = 3.8281e-13, No Iterations 0
DICPCG:  Solving for T, Initial residual = 3.8281e-13, Final residual = 3.8281e-13, No Iterations 0
ExecutionTime = 2.32 s  ClockTime = 2 s

Time = 1.105

[...]
DICPCG:  Solving for T, Initial residual = 3.09089e-13, Final residual = 3.09089e-13, No Iterations 0
ExecutionTime = 5.84 s  ClockTime = 6 s

Time = 2.73

DICPCG:  Solving for T, Initial residual = 0.0005094, Final residual = 4.89022e-16, No Iterations 1
DICPCG:  Solving for T, Initial residual = 6.94177e-13, Final residual = 6.94177e-13, No Iterations 0
DICPCG:  Solving for T, Initial residual = 6.94177e-13, Final residual = 6.94177e-13, No Iterations 0
ExecutionTime = 5.85 s  ClockTime = 6 s

Time = 2.735

DICPCG:  Solving for T, Initial residual = 0.000508467, Final residual = 4.88072e-16, No Iterations 1
DICPCG:  Solving for T, Initial residual = 6.15918e-13, Final residual = 6.15918e-13, No Iterations 0
DICPCG:  Solving for T, Initial residual = 6.15918e-13, Final residual = 6.15918e-13, No Iterations 0
ExecutionTime = 5.86 s  ClockTime = 6 s

Time = 2.74

DICPCG:  Solving for T, Initial residual = 0.000507538, Final residual = 4.87199e-16, No Iterations 1
DICPCG:  Solving for T, Initial residual = 4.22671e-13, Final residual = 4.22671e-13, No Iterations 0
DICPCG:  Solving for T, Initial residual = 4.22671e-13, Final residual = 4.22671e-13, No Iterations 0
ExecutionTime = 5.87 s  ClockTime = 6 s

Time = 2.745

DICPCG:  Solving for T, Initial residual = 0.000506612, Final residual = 4.86365e-16, No Iterations 1
DICPCG:  Solving for T, Initial residual = 4.21901e-13, Final residual = 4.21901e-13, No Iterations 0
DICPCG:  Solving for T, Initial residual = 4.21901e-13, Final residual = 4.21901e-13, No Iterations 0
ExecutionTime = 5.89 s  ClockTime = 6 s

Time = 2.75

DICPCG:  Solving for T, Initial residual = 0.00050569, Final residual = 4.85425e-16, No Iterations 1
DICPCG:  Solving for T, Initial residual = 4.97704e-13, Final residual = 4.97704e-13, No Iterations 0
DICPCG:  Solving for T, Initial residual = 4.97704e-13, Final residual = 4.97704e-13, No Iterations 0
ExecutionTime = 5.9 s  ClockTime = 6 s

Time = 2.755

DICPCG:  Solving for T, Initial residual = 0.000504771, Final residual = 4.84488e-16, No Iterations 1
DICPCG:  Solving for T, Initial residual = 7.26094e-13, Final residual = 7.26094e-13, No Iterations 0
DICPCG:  Solving for T, Initial residual = 7.26094e-13, Final residual = 7.26094e-13, No Iterations 0
ExecutionTime = 5.91 s  ClockTime = 6 s

Time = 2.76

DICPCG:  Solving for T, Initial residual = 0.000503855, Final residual = 4.83682e-16, No Iterations 1
DICPCG:  Solving for T, Initial residual = 5.34048e-13, Final residual = 5.34048e-13, No Iterations 0
DICPCG:  Solving for T, Initial residual = 5.34048e-13, Final residual = 5.34048e-13, No Iterations 0
ExecutionTime = 5.92 s  ClockTime = 6 s

Time = 2.765

DICPCG:  Solving for T, Initial residual = 0.000502943, Final residual = 4.82697e-16, No Iterations 1
DICPCG:  Solving for T, Initial residual = 4.95005e-13, Final residual = 4.95005e-13, No Iterations 0
DICPCG:  Solving for T, Initial residual = 4.95005e-13, Final residual = 4.95005e-13, No Iterations 0
ExecutionTime = 5.93 s  ClockTime = 6 s

Time = 2.77

DICPCG:  Solving for T, Initial residual = 0.000502034, Final residual = 4.8188e-16, No Iterations 1
DICPCG:  Solving for T, Initial residual = 1.90043e-13, Final residual = 1.90043e-13, No Iterations 0
DICPCG:  Solving for T, Initial residual = 1.90043e-13, Final residual = 1.90043e-13, No Iterations 0
ExecutionTime = 5.94 s  ClockTime = 6 s

Time = 2.775

DICPCG:  Solving for T, Initial residual = 0.000501128, Final residual = 4.81028e-16, No Iterations 1
DICPCG:  Solving for T, Initial residual = 6.07041e-13, Final residual = 6.07041e-13, No Iterations 0
DICPCG:  Solving for T, Initial residual = 6.07041e-13, Final residual = 6.07041e-13, No Iterations 0
ExecutionTime = 5.95 s  ClockTime = 6 s

Time = 2.78

DICPCG:  Solving for T, Initial residual = 0.000500225, Final residual = 4.80307e-16, No Iterations 1
DICPCG:  Solving for T, Initial residual = 3.78719e-13, Final residual = 3.78719e-13, No Iterations 0
DICPCG:  Solving for T, Initial residual = 3.78719e-13, Final residual = 3.78719e-13, No Iterations 0
ExecutionTime = 5.96 s  ClockTime = 6 s

Time = 2.785

DICPCG:  Solving for T, Initial residual = 0.000499326, Final residual = 4.79335e-16, No Iterations 1
DICPCG:  Solving for T, Initial residual = 6.04862e-13, Final residual = 6.04862e-13, No Iterations 0
DICPCG:  Solving for T, Initial residual = 6.04862e-13, Final residual = 6.04862e-13, No Iterations 0
ExecutionTime = 5.97 s  ClockTime = 6 s

Time = 2.79

DICPCG:  Solving for T, Initial residual = 0.00049843, Final residual = 4.78403e-16, No Iterations 1
DICPCG:  Solving for T, Initial residual = 4.15098e-13, Final residual = 4.15098e-13, No Iterations 0
DICPCG:  Solving for T, Initial residual = 4.15098e-13, Final residual = 4.15098e-13, No Iterations 0
ExecutionTime = 5.98 s  ClockTime = 6 s

Time = 2.795

DICPCG:  Solving for T, Initial residual = 0.000497537, Final residual = 4.77618e-16, No Iterations 1
DICPCG:  Solving for T, Initial residual = 3.76687e-13, Final residual = 3.76687e-13, No Iterations 0
DICPCG:  Solving for T, Initial residual = 3.76687e-13, Final residual = 3.76687e-13, No Iterations 0
ExecutionTime = 5.98 s  ClockTime = 6 s

Time = 2.8

DICPCG:  Solving for T, Initial residual = 0.000496648, Final residual = 4.76747e-16, No Iterations 1
DICPCG:  Solving for T, Initial residual = 5.2642e-13, Final residual = 5.2642e-13, No Iterations 0
DICPCG:  Solving for T, Initial residual = 5.2642e-13, Final residual = 5.2642e-13, No Iterations 0
ExecutionTime = 6 s  ClockTime = 6 s

Time = 2.805

DICPCG:  Solving for T, Initial residual = 0.000495761, Final residual = 4.75878e-16, No Iterations 1
DICPCG:  Solving for T, Initial residual = 4.87947e-13, Final residual = 4.87947e-13, No Iterations 0
DICPCG:  Solving for T, Initial residual = 4.87947e-13, Final residual = 4.87947e-13, No Iterations 0
ExecutionTime = 6 s  ClockTime = 6 s

Time = 2.81

DICPCG:  Solving for T, Initial residual = 0.000494878, Final residual = 4.7503e-16, No Iterations 1
DICPCG:  Solving for T, Initial residual = 1.87338e-13, Final residual = 1.87338e-13, No Iterations 0
DICPCG:  Solving for T, Initial residual = 1.87338e-13, Final residual = 1.87338e-13, No Iterations 0
ExecutionTime = 6.01 s  ClockTime = 6 s

Time = 2.815

DICPCG:  Solving for T, Initial residual = 0.000493998, Final residual = 4.74239e-16, No Iterations 1
DICPCG:  Solving for T, Initial residual = 4.86214e-13, Final residual = 4.86214e-13, No Iterations 0
DICPCG:  Solving for T, Initial residual = 4.86214e-13, Final residual = 4.86214e-13, No Iterations 0
ExecutionTime = 6.03 s  ClockTime = 6 s

Time = 2.82

DICPCG:  Solving for T, Initial residual = 0.000493121, Final residual = 4.73361e-16, No Iterations 1
DICPCG:  Solving for T, Initial residual = 3.36013e-13, Final residual = 3.36013e-13, No Iterations 0
DICPCG:  Solving for T, Initial residual = 3.36013e-13, Final residual = 3.36013e-13, No Iterations 0
ExecutionTime = 6.04 s  ClockTime = 6 s

Time = 2.825

DICPCG:  Solving for T, Initial residual = 0.000492247, Final residual = 4.72541e-16, No Iterations 1
DICPCG:  Solving for T, Initial residual = 3.35418e-13, Final residual = 3.35418e-13, No Iterations 0
DICPCG:  Solving for T, Initial residual = 3.35418e-13, Final residual = 3.35418e-13, No Iterations 0
ExecutionTime = 6.05 s  ClockTime = 6 s

Time = 2.83

DICPCG:  Solving for T, Initial residual = 0.000491376, Final residual = 4.71687e-16, No Iterations 1
DICPCG:  Solving for T, Initial residual = 3.72029e-13, Final residual = 3.72029e-13, No Iterations 0
DICPCG:  Solving for T, Initial residual = 3.72029e-13, Final residual = 3.72029e-13, No Iterations 0
ExecutionTime = 6.06 s  ClockTime = 6 s

Time = 2.835

DICPCG:  Solving for T, Initial residual = 0.000490508, Final residual = 4.70819e-16, No Iterations 1
DICPCG:  Solving for T, Initial residual = 2.97098e-13, Final residual = 2.97098e-13, No Iterations 0
DICPCG:  Solving for T, Initial residual = 2.97098e-13, Final residual = 2.97098e-13, No Iterations 0
ExecutionTime = 6.07 s  ClockTime = 6 s

Time = 2.84

DICPCG:  Solving for T, Initial residual = 0.000489643, Final residual = 4.70042e-16, No Iterations 1
DICPCG:  Solving for T, Initial residual = 5.19007e-13, Final residual = 5.19007e-13, No Iterations 0
DICPCG:  Solving for T, Initial residual = 5.19007e-13, Final residual = 5.19007e-13, No Iterations 0
ExecutionTime = 6.09 s  ClockTime = 6 s

Time = 2.845

DICPCG:  Solving for T, Initial residual = 0.000488782, Final residual = 4.6925e-16, No Iterations 1
DICPCG:  Solving for T, Initial residual = 2.96054e-13, Final residual = 2.96054e-13, No Iterations 0
DICPCG:  Solving for T, Initial residual = 2.96054e-13, Final residual = 2.96054e-13, No Iterations 0
ExecutionTime = 6.1 s  ClockTime = 6 s

Time = 2.85

DICPCG:  Solving for T, Initial residual = 0.000487923, Final residual = 4.68373e-16, No Iterations 1
DICPCG:  Solving for T, Initial residual = 4.43302e-13, Final residual = 4.43302e-13, No Iterations 0
DICPCG:  Solving for T, Initial residual = 4.43302e-13, Final residual = 4.43302e-13, No Iterations 0
ExecutionTime = 6.11 s  ClockTime = 7 s

Time = 2.855

DICPCG:  Solving for T, Initial residual = 0.000487067, Final residual = 4.6757e-16, No Iterations 1
DICPCG:  Solving for T, Initial residual = 2.95017e-13, Final residual = 2.95017e-13, No Iterations 0
DICPCG:  Solving for T, Initial residual = 2.95017e-13, Final residual = 2.95017e-13, No Iterations 0
ExecutionTime = 6.13 s  ClockTime = 7 s

Time = 2.86

DICPCG:  Solving for T, Initial residual = 0.000486215, Final residual = 4.66751e-16, No Iterations 1
DICPCG:  Solving for T, Initial residual = 3.68127e-13, Final residual = 3.68127e-13, No Iterations 0
DICPCG:  Solving for T, Initial residual = 3.68127e-13, Final residual = 3.68127e-13, No Iterations 0
ExecutionTime = 6.13 s  ClockTime = 7 s

Time = 2.865

DICPCG:  Solving for T, Initial residual = 0.000485365, Final residual = 4.65936e-16, No Iterations 1
DICPCG:  Solving for T, Initial residual = 2.93988e-13, Final residual = 2.93988e-13, No Iterations 0
DICPCG:  Solving for T, Initial residual = 2.93988e-13, Final residual = 2.93988e-13, No Iterations 0
ExecutionTime = 6.15 s  ClockTime = 7 s

Time = 2.87

DICPCG:  Solving for T, Initial residual = 0.000484518, Final residual = 4.65123e-16, No Iterations 1
DICPCG:  Solving for T, Initial residual = 2.93476e-13, Final residual = 2.93476e-13, No Iterations 0
DICPCG:  Solving for T, Initial residual = 2.93476e-13, Final residual = 2.93476e-13, No Iterations 0
ExecutionTime = 6.16 s  ClockTime = 7 s

Time = 2.875

DICPCG:  Solving for T, Initial residual = 0.000483675, Final residual = 4.64296e-16, No Iterations 1
DICPCG:  Solving for T, Initial residual = 6.59172e-13, Final residual = 6.59172e-13, No Iterations 0
DICPCG:  Solving for T, Initial residual = 6.59172e-13, Final residual = 6.59172e-13, No Iterations 0
ExecutionTime = 6.17 s  ClockTime = 7 s

Time = 2.88

DICPCG:  Solving for T, Initial residual = 0.000482834, Final residual = 4.63506e-16, No Iterations 1
DICPCG:  Solving for T, Initial residual = 5.84914e-13, Final residual = 5.84914e-13, No Iterations 0
DICPCG:  Solving for T, Initial residual = 5.84914e-13, Final residual = 5.84914e-13, No Iterations 0
ExecutionTime = 6.18 s  ClockTime = 7 s

Time = 2.885

DICPCG:  Solving for T, Initial residual = 0.000481996, Final residual = 4.62685e-16, No Iterations 1
DICPCG:  Solving for T, Initial residual = 4.37925e-13, Final residual = 4.37925e-13, No Iterations 0
DICPCG:  Solving for T, Initial residual = 4.37925e-13, Final residual = 4.37925e-13, No Iterations 0
ExecutionTime = 6.19 s  ClockTime = 7 s

Time = 2.89

DICPCG:  Solving for T, Initial residual = 0.000481161, Final residual = 4.61848e-16, No Iterations 1
DICPCG:  Solving for T, Initial residual = 6.55751e-13, Final residual = 6.55751e-13, No Iterations 0
DICPCG:  Solving for T, Initial residual = 6.55751e-13, Final residual = 6.55751e-13, No Iterations 0
ExecutionTime = 6.2 s  ClockTime = 7 s

Time = 2.895

DICPCG:  Solving for T, Initial residual = 0.000480329, Final residual = 4.6105e-16, No Iterations 1
DICPCG:  Solving for T, Initial residual = 3.27309e-13, Final residual = 3.27309e-13, No Iterations 0
DICPCG:  Solving for T, Initial residual = 3.27309e-13, Final residual = 3.27309e-13, No Iterations 0
ExecutionTime = 6.21 s  ClockTime = 7 s

Time = 2.9

DICPCG:  Solving for T, Initial residual = 0.0004795, Final residual = 4.60358e-16, No Iterations 1
DICPCG:  Solving for T, Initial residual = 2.9044e-13, Final residual = 2.9044e-13, No Iterations 0
DICPCG:  Solving for T, Initial residual = 2.9044e-13, Final residual = 2.9044e-13, No Iterations 0
ExecutionTime = 6.22 s  ClockTime = 7 s

Time = 2.905

DICPCG:  Solving for T, Initial residual = 0.000478673, Final residual = 4.59548e-16, No Iterations 1
DICPCG:  Solving for T, Initial residual = 1.81213e-13, Final residual = 1.81213e-13, No Iterations 0
DICPCG:  Solving for T, Initial residual = 1.81213e-13, Final residual = 1.81213e-13, No Iterations 0
ExecutionTime = 6.23 s  ClockTime = 7 s

Time = 2.91

DICPCG:  Solving for T, Initial residual = 0.00047785, Final residual = 4.58688e-16, No Iterations 1
DICPCG:  Solving for T, Initial residual = 4.34163e-13, Final residual = 4.34163e-13, No Iterations 0
DICPCG:  Solving for T, Initial residual = 4.34163e-13, Final residual = 4.34163e-13, No Iterations 0
ExecutionTime = 6.24 s  ClockTime = 7 s

Time = 2.915

DICPCG:  Solving for T, Initial residual = 0.000477029, Final residual = 4.57952e-16, No Iterations 1
DICPCG:  Solving for T, Initial residual = 5.05655e-13, Final residual = 5.05655e-13, No Iterations 0
DICPCG:  Solving for T, Initial residual = 5.05655e-13, Final residual = 5.05655e-13, No Iterations 0
ExecutionTime = 6.25 s  ClockTime = 7 s

Time = 2.92

DICPCG:  Solving for T, Initial residual = 0.000476211, Final residual = 4.57115e-16, No Iterations 1
DICPCG:  Solving for T, Initial residual = 4.32677e-13, Final residual = 4.32677e-13, No Iterations 0
DICPCG:  Solving for T, Initial residual = 4.32677e-13, Final residual = 4.32677e-13, No Iterations 0
ExecutionTime = 6.26 s  ClockTime = 7 s

Time = 2.925

DICPCG:  Solving for T, Initial residual = 0.000475396, Final residual = 4.56385e-16, No Iterations 1
DICPCG:  Solving for T, Initial residual = 4.31937e-13, Final residual = 4.31937e-13, No Iterations 0
DICPCG:  Solving for T, Initial residual = 4.31937e-13, Final residual = 4.31937e-13, No Iterations 0
ExecutionTime = 6.27 s  ClockTime = 7 s

Time = 2.93

DICPCG:  Solving for T, Initial residual = 0.000474584, Final residual = 4.55554e-16, No Iterations 1
DICPCG:  Solving for T, Initial residual = 4.312e-13, Final residual = 4.312e-13, No Iterations 0
DICPCG:  Solving for T, Initial residual = 4.312e-13, Final residual = 4.312e-13, No Iterations 0
ExecutionTime = 6.28 s  ClockTime = 7 s

Time = 2.935

DICPCG:  Solving for T, Initial residual = 0.000473774, Final residual = 4.54811e-16, No Iterations 1
DICPCG:  Solving for T, Initial residual = 2.86977e-13, Final residual = 2.86977e-13, No Iterations 0
DICPCG:  Solving for T, Initial residual = 2.86977e-13, Final residual = 2.86977e-13, No Iterations 0
ExecutionTime = 6.29 s  ClockTime = 7 s

Time = 2.94

DICPCG:  Solving for T, Initial residual = 0.000472967, Final residual = 4.5402e-16, No Iterations 1
DICPCG:  Solving for T, Initial residual = 5.01356e-13, Final residual = 5.01356e-13, No Iterations 0
DICPCG:  Solving for T, Initial residual = 5.01356e-13, Final residual = 5.01356e-13, No Iterations 0
ExecutionTime = 6.31 s  ClockTime = 7 s

Time = 2.945

DICPCG:  Solving for T, Initial residual = 0.000472163, Final residual = 4.53299e-16, No Iterations 1
DICPCG:  Solving for T, Initial residual = 3.57504e-13, Final residual = 3.57504e-13, No Iterations 0
DICPCG:  Solving for T, Initial residual = 3.57504e-13, Final residual = 3.57504e-13, No Iterations 0
ExecutionTime = 6.31 s  ClockTime = 7 s

Time = 2.95

DICPCG:  Solving for T, Initial residual = 0.000471362, Final residual = 4.52462e-16, No Iterations 1
DICPCG:  Solving for T, Initial residual = 7.13796e-13, Final residual = 7.13796e-13, No Iterations 0
DICPCG:  Solving for T, Initial residual = 7.13796e-13, Final residual = 7.13796e-13, No Iterations 0
ExecutionTime = 6.31 s  ClockTime = 7 s

Time = 2.955

DICPCG:  Solving for T, Initial residual = 0.000470564, Final residual = 4.51712e-16, No Iterations 1
DICPCG:  Solving for T, Initial residual = 4.27553e-13, Final residual = 4.27553e-13, No Iterations 0
DICPCG:  Solving for T, Initial residual = 4.27553e-13, Final residual = 4.27553e-13, No Iterations 0
ExecutionTime = 6.33 s  ClockTime = 7 s

Time = 2.96

DICPCG:  Solving for T, Initial residual = 0.000469768, Final residual = 4.50915e-16, No Iterations 1
DICPCG:  Solving for T, Initial residual = 4.26831e-13, Final residual = 4.26831e-13, No Iterations 0
DICPCG:  Solving for T, Initial residual = 4.26831e-13, Final residual = 4.26831e-13, No Iterations 0
ExecutionTime = 6.33 s  ClockTime = 7 s

Time = 2.965

DICPCG:  Solving for T, Initial residual = 0.000468974, Final residual = 4.50221e-16, No Iterations 1
DICPCG:  Solving for T, Initial residual = 3.55093e-13, Final residual = 3.55093e-13, No Iterations 0
DICPCG:  Solving for T, Initial residual = 3.55093e-13, Final residual = 3.55093e-13, No Iterations 0
ExecutionTime = 6.35 s  ClockTime = 7 s

Time = 2.97

DICPCG:  Solving for T, Initial residual = 0.000468184, Final residual = 4.49429e-16, No Iterations 1
DICPCG:  Solving for T, Initial residual = 4.25394e-13, Final residual = 4.25394e-13, No Iterations 0
DICPCG:  Solving for T, Initial residual = 4.25394e-13, Final residual = 4.25394e-13, No Iterations 0
ExecutionTime = 6.36 s  ClockTime = 7 s

Time = 2.975

DICPCG:  Solving for T, Initial residual = 0.000467396, Final residual = 4.48672e-16, No Iterations 1
DICPCG:  Solving for T, Initial residual = 4.95459e-13, Final residual = 4.95459e-13, No Iterations 0
DICPCG:  Solving for T, Initial residual = 4.95459e-13, Final residual = 4.95459e-13, No Iterations 0
ExecutionTime = 6.37 s  ClockTime = 7 s

Time = 2.98

DICPCG:  Solving for T, Initial residual = 0.000466611, Final residual = 4.47868e-16, No Iterations 1
DICPCG:  Solving for T, Initial residual = 3.88636e-13, Final residual = 3.88636e-13, No Iterations 0
DICPCG:  Solving for T, Initial residual = 3.88636e-13, Final residual = 3.88636e-13, No Iterations 0
ExecutionTime = 6.38 s  ClockTime = 7 s

Time = 2.985

DICPCG:  Solving for T, Initial residual = 0.000465828, Final residual = 4.47151e-16, No Iterations 1
DICPCG:  Solving for T, Initial residual = 3.52714e-13, Final residual = 3.52714e-13, No Iterations 0
DICPCG:  Solving for T, Initial residual = 3.52714e-13, Final residual = 3.52714e-13, No Iterations 0
ExecutionTime = 6.39 s  ClockTime = 7 s

Time = 2.99

DICPCG:  Solving for T, Initial residual = 0.000465048, Final residual = 4.46385e-16, No Iterations 1
DICPCG:  Solving for T, Initial residual = 7.39461e-13, Final residual = 7.39461e-13, No Iterations 0
DICPCG:  Solving for T, Initial residual = 7.39461e-13, Final residual = 7.39461e-13, No Iterations 0
ExecutionTime = 6.4 s  ClockTime = 7 s

Time = 2.995

DICPCG:  Solving for T, Initial residual = 0.000464271, Final residual = 4.4569e-16, No Iterations 1
DICPCG:  Solving for T, Initial residual = 3.51537e-13, Final residual = 3.51537e-13, No Iterations 0
DICPCG:  Solving for T, Initial residual = 3.51537e-13, Final residual = 3.51537e-13, No Iterations 0
ExecutionTime = 6.41 s  ClockTime = 7 s

Time = 3

DICPCG:  Solving for T, Initial residual = 0.000463496, Final residual = 4.44929e-16, No Iterations 1
DICPCG:  Solving for T, Initial residual = 3.50951e-13, Final residual = 3.50951e-13, No Iterations 0
DICPCG:  Solving for T, Initial residual = 3.50951e-13, Final residual = 3.50951e-13, No Iterations 0
ExecutionTime = 6.43 s  ClockTime = 7 s

End

