/*---------------------------------------------------------------------------*\
| =========                 |                                                 |
| \\      /  F ield         | OpenFOAM: The Open Source CFD Toolbox           |
|  \\    /   O peration     | Version:  2.1.1                                 |
|   \\  /    A nd           | Web:      www.OpenFOAM.org                      |
|    \\/     M anipulation  |                                                 |
\*---------------------------------------------------------------------------*/
Build  : 2.1.1-221db2718bbb
Exec   : hyper1Foam
Date   : Nov 02 2013
Time   : 22:05:22
Host   : "mgt1"
PID    : 21033
Case   : /home/avdeev/case
nProcs : 1
sigFpe : Enabling floating point exception trapping (FOAM_SIGFPE).
fileModificationChecking : Monitoring run-time modified files using timeStampMaster
allowSystemOperations : Allowing user-supplied system call operations

// * * * * * * * * * * * * * * * * * * * * * * * * * * * * * * * * * * * * * //
Create time

Create mesh for time = 0

Reading field psi

Reading field U

Reading/calculating face flux field phi


Calculating scalar transport

Courant Number mean: 0.025 max: 0.025
Time = 0.005

nonePBiCG:  Solving for psi:  solution singularity
ExecutionTime = 0.04 s  ClockTime = 0 s

Time = 0.01

nonePBiCG:  Solving for psi:  solution singularity
ExecutionTime = 0.04 s  ClockTime = 0 s

Time = 0.015

nonePBiCG:  Solving for psi, Initial residual = 0.138608, Final residual = 6.10281e-07, No Iterations 3
ExecutionTime = 0.04 s  ClockTime = 0 s

Time = 0.02

nonePBiCG:  Solving for psi, Initial residual = 0.0983332, Final residual = 4.4225e-07, No Iterations 3
ExecutionTime = 0.04 s  ClockTime = 0 s

Time = 0.025

nonePBiCG:  Solving for psi, Initial residual = 0.0766944, Final residual = 3.50793e-07, No Iterations 3
ExecutionTime = 0.04 s  ClockTime = 0 s

Time = 0.03

nonePBiCG:  Solving for psi, Initial residual = 0.0632077, Final residual = 2.93101e-07, No Iterations 3
ExecutionTime = 0.04 s  ClockTime = 0 s

Time = 0.035

nonePBiCG:  Solving for psi, Initial residual = 0.0540074, Final residual = 2.52953e-07, No Iterations 3
ExecutionTime = 0.04 s  ClockTime = 0 s

Time = 0.04

nonePBiCG:  Solving for psi, Initial residual = 0.0473367, Final residual = 2.23276e-07, No Iterations 3
ExecutionTime = 0.04 s  ClockTime = 0 s

Time = 0.045

nonePBiCG:  Solving for psi, Initial residual = 0.0422825, Final residual = 2.00372e-07, No Iterations 3
ExecutionTime = 0.04 s  ClockTime = 0 s

Time = 0.05

nonePBiCG:  Solving for psi, Initial residual = 0.0383237, Final residual = 1.821e-07, No Iterations 3
ExecutionTime = 0.04 s  ClockTime = 0 s

Time = 0.055

nonePBiCG:  Solving for psi, Initial residual = 0.0351415, Final residual = 1.67128e-07, No Iterations 3
ExecutionTime = 0.04 s  ClockTime = 0 s

Time = 0.06

nonePBiCG:  Solving for psi, Initial residual = 0.0325298, Final residual = 1.54589e-07, No Iterations 3
ExecutionTime = 0.04 s  ClockTime = 0 s

Time = 0.065

nonePBiCG:  Solving for psi, Initial residual = 0.0303495, Final residual = 1.43894e-07, No Iterations 3
ExecutionTime = 0.04 s  ClockTime = 0 s

Time = 0.07

nonePBiCG:  Solving for psi, Initial residual = 0.0285035, Final residual = 1.34629e-07, No Iterations 3
ExecutionTime = 0.04 s  ClockTime = 0 s

Time = 0.075

nonePBiCG:  Solving for psi, Initial residual = 0.0269215, Final residual = 1.26497e-07, No Iterations 3
ExecutionTime = 0.04 s  ClockTime = 0 s

Time = 0.08

nonePBiCG:  Solving for psi, Initial residual = 0.025552, Final residual = 1.19277e-07, No Iterations 3
ExecutionTime = 0.04 s  ClockTime = 0 s

Time = 0.085

nonePBiCG:  Solving for psi, Initial residual = 0.0243559, Final residual = 1.12805e-07, No Iterations 3
ExecutionTime = 0.04 s  ClockTime = 0 s

Time = 0.09

nonePBiCG:  Solving for psi, Initial residual = 0.0233031, Final residual = 1.06953e-07, No Iterations 3
ExecutionTime = 0.04 s  ClockTime = 0 s

Time = 0.095

nonePBiCG:  Solving for psi, Initial residual = 0.0223703, Final residual = 1.01624e-07, No Iterations 3
ExecutionTime = 0.04 s  ClockTime = 0 s

Time = 0.1

nonePBiCG:  Solving for psi, Initial residual = 0.0215388, Final residual = 9.67401e-08, No Iterations 3
ExecutionTime = 0.04 s  ClockTime = 0 s

Time = 0.105

nonePBiCG:  Solving for psi, Initial residual = 0.0207937, Final residual = 9.224e-08, No Iterations 3
ExecutionTime = 0.04 s  ClockTime = 0 s

Time = 0.11

nonePBiCG:  Solving for psi, Initial residual = 0.0201229, Final residual = 8.80741e-08, No Iterations 3
ExecutionTime = 0.04 s  ClockTime = 0 s

Time = 0.115

nonePBiCG:  Solving for psi, Initial residual = 0.0195165, Final residual = 8.4202e-08, No Iterations 3
ExecutionTime = 0.04 s  ClockTime = 0 s

Time = 0.12

nonePBiCG:  Solving for psi, Initial residual = 0.0189345, Final residual = 8.04563e-08, No Iterations 3
ExecutionTime = 0.04 s  ClockTime = 0 s

Time = 0.125

nonePBiCG:  Solving for psi, Initial residual = 0.0183479, Final residual = 7.67228e-08, No Iterations 3
ExecutionTime = 0.04 s  ClockTime = 0 s

Time = 0.13

nonePBiCG:  Solving for psi, Initial residual = 0.0178104, Final residual = 7.32346e-08, No Iterations 3
ExecutionTime = 0.04 s  ClockTime = 0 s

Time = 0.135

nonePBiCG:  Solving for psi, Initial residual = 0.0172526, Final residual = 6.97106e-08, No Iterations 3
ExecutionTime = 0.04 s  ClockTime = 0 s

Time = 0.14

nonePBiCG:  Solving for psi, Initial residual = 0.0167225, Final residual = 6.6355e-08, No Iterations 3
ExecutionTime = 0.04 s  ClockTime = 0 s

Time = 0.145

nonePBiCG:  Solving for psi, Initial residual = 0.0162327, Final residual = 6.32178e-08, No Iterations 3
ExecutionTime = 0.04 s  ClockTime = 0 s

Time = 0.15

nonePBiCG:  Solving for psi, Initial residual = 0.0157791, Final residual = 6.02808e-08, No Iterations 3
ExecutionTime = 0.04 s  ClockTime = 0 s

Time = 0.155

nonePBiCG:  Solving for psi, Initial residual = 0.0153579, Final residual = 5.75277e-08, No Iterations 3
ExecutionTime = 0.04 s  ClockTime = 0 s

Time = 0.16

nonePBiCG:  Solving for psi, Initial residual = 0.0149662, Final residual = 5.49442e-08, No Iterations 3
ExecutionTime = 0.04 s  ClockTime = 0 s

Time = 0.165

nonePBiCG:  Solving for psi, Initial residual = 0.0146012, Final residual = 5.25174e-08, No Iterations 3
ExecutionTime = 0.04 s  ClockTime = 0 s

Time = 0.17

nonePBiCG:  Solving for psi, Initial residual = 0.0142604, Final residual = 5.02399e-08, No Iterations 3
ExecutionTime = 0.04 s  ClockTime = 0 s

Time = 0.175

nonePBiCG:  Solving for psi, Initial residual = 0.0139417, Final residual = 4.81057e-08, No Iterations 3
ExecutionTime = 0.04 s  ClockTime = 0 s

Time = 0.18

nonePBiCG:  Solving for psi, Initial residual = 0.0136432, Final residual = 4.60969e-08, No Iterations 3
ExecutionTime = 0.04 s  ClockTime = 0 s

Time = 0.185

nonePBiCG:  Solving for psi, Initial residual = 0.0133633, Final residual = 4.42049e-08, No Iterations 3
ExecutionTime = 0.04 s  ClockTime = 0 s

Time = 0.19

nonePBiCG:  Solving for psi, Initial residual = 0.0131004, Final residual = 4.2422e-08, No Iterations 3
ExecutionTime = 0.04 s  ClockTime = 0 s

Time = 0.195

nonePBiCG:  Solving for psi, Initial residual = 0.0128531, Final residual = 4.07408e-08, No Iterations 3
ExecutionTime = 0.04 s  ClockTime = 0 s

Time = 0.2

nonePBiCG:  Solving for psi, Initial residual = 0.0126204, Final residual = 3.91547e-08, No Iterations 3
ExecutionTime = 0.04 s  ClockTime = 0 s

Time = 0.205

nonePBiCG:  Solving for psi, Initial residual = 0.012401, Final residual = 3.76578e-08, No Iterations 3
ExecutionTime = 0.04 s  ClockTime = 0 s

Time = 0.21

nonePBiCG:  Solving for psi, Initial residual = 0.012194, Final residual = 3.62442e-08, No Iterations 3
ExecutionTime = 0.04 s  ClockTime = 0 s

Time = 0.215

nonePBiCG:  Solving for psi, Initial residual = 0.0119985, Final residual = 3.4909e-08, No Iterations 3
ExecutionTime = 0.04 s  ClockTime = 0 s

Time = 0.22

nonePBiCG:  Solving for psi, Initial residual = 0.0118137, Final residual = 3.36472e-08, No Iterations 3
ExecutionTime = 0.04 s  ClockTime = 0 s

Time = 0.225

nonePBiCG:  Solving for psi, Initial residual = 0.0116389, Final residual = 3.24545e-08, No Iterations 3
ExecutionTime = 0.05 s  ClockTime = 0 s

Time = 0.23

nonePBiCG:  Solving for psi, Initial residual = 0.0114734, Final residual = 3.13268e-08, No Iterations 3
ExecutionTime = 0.05 s  ClockTime = 0 s

Time = 0.235

nonePBiCG:  Solving for psi, Initial residual = 0.0113166, Final residual = 3.02603e-08, No Iterations 3
ExecutionTime = 0.05 s  ClockTime = 0 s

Time = 0.24

nonePBiCG:  Solving for psi, Initial residual = 0.0111679, Final residual = 2.92515e-08, No Iterations 3
ExecutionTime = 0.05 s  ClockTime = 0 s

Time = 0.245

nonePBiCG:  Solving for psi, Initial residual = 0.0110268, Final residual = 2.82972e-08, No Iterations 3
ExecutionTime = 0.05 s  ClockTime = 0 s

Time = 0.25

nonePBiCG:  Solving for psi, Initial residual = 0.0108928, Final residual = 2.73943e-08, No Iterations 3
ExecutionTime = 0.05 s  ClockTime = 0 s

Time = 0.255

nonePBiCG:  Solving for psi, Initial residual = 0.0107656, Final residual = 2.65402e-08, No Iterations 3
ExecutionTime = 0.05 s  ClockTime = 0 s

Time = 0.26

nonePBiCG:  Solving for psi, Initial residual = 0.0106446, Final residual = 2.57321e-08, No Iterations 3
ExecutionTime = 0.05 s  ClockTime = 0 s

Time = 0.265

nonePBiCG:  Solving for psi, Initial residual = 0.0105296, Final residual = 2.49679e-08, No Iterations 3
ExecutionTime = 0.05 s  ClockTime = 0 s

Time = 0.27

nonePBiCG:  Solving for psi, Initial residual = 0.0104202, Final residual = 2.42452e-08, No Iterations 3
ExecutionTime = 0.05 s  ClockTime = 0 s

Time = 0.275

nonePBiCG:  Solving for psi, Initial residual = 0.0103161, Final residual = 2.3562e-08, No Iterations 3
ExecutionTime = 0.05 s  ClockTime = 0 s

Time = 0.28

nonePBiCG:  Solving for psi, Initial residual = 0.010217, Final residual = 2.29165e-08, No Iterations 3
ExecutionTime = 0.05 s  ClockTime = 0 s

Time = 0.285

nonePBiCG:  Solving for psi, Initial residual = 0.0101225, Final residual = 2.2307e-08, No Iterations 3
ExecutionTime = 0.05 s  ClockTime = 0 s

Time = 0.29

nonePBiCG:  Solving for psi, Initial residual = 0.0100326, Final residual = 2.17317e-08, No Iterations 3
ExecutionTime = 0.05 s  ClockTime = 0 s

Time = 0.295

nonePBiCG:  Solving for psi, Initial residual = 0.00994682, Final residual = 2.11892e-08, No Iterations 3
ExecutionTime = 0.05 s  ClockTime = 0 s

Time = 0.3

nonePBiCG:  Solving for psi, Initial residual = 0.00986508, Final residual = 2.06778e-08, No Iterations 3
ExecutionTime = 0.05 s  ClockTime = 0 s

Time = 0.305

nonePBiCG:  Solving for psi, Initial residual = 0.00978714, Final residual = 2.01962e-08, No Iterations 3
ExecutionTime = 0.05 s  ClockTime = 0 s

Time = 0.31

nonePBiCG:  Solving for psi, Initial residual = 0.00971281, Final residual = 1.97427e-08, No Iterations 3
ExecutionTime = 0.05 s  ClockTime = 0 s

Time = 0.315

nonePBiCG:  Solving for psi, Initial residual = 0.0096419, Final residual = 1.93153e-08, No Iterations 3
ExecutionTime = 0.05 s  ClockTime = 0 s

Time = 0.32

nonePBiCG:  Solving for psi, Initial residual = 0.00957426, Final residual = 1.89115e-08, No Iterations 3
ExecutionTime = 0.05 s  ClockTime = 0 s

Time = 0.325

nonePBiCG:  Solving for psi, Initial residual = 0.00950971, Final residual = 1.85278e-08, No Iterations 3
ExecutionTime = 0.05 s  ClockTime = 0 s

Time = 0.33

nonePBiCG:  Solving for psi, Initial residual = 0.00944812, Final residual = 1.81584e-08, No Iterations 3
ExecutionTime = 0.05 s  ClockTime = 0 s

Time = 0.335

nonePBiCG:  Solving for psi, Initial residual = 0.00938934, Final residual = 1.77929e-08, No Iterations 3
ExecutionTime = 0.05 s  ClockTime = 0 s

Time = 0.34

nonePBiCG:  Solving for psi, Initial residual = 0.00933325, Final residual = 1.74104e-08, No Iterations 3
ExecutionTime = 0.05 s  ClockTime = 0 s

Time = 0.345

nonePBiCG:  Solving for psi, Initial residual = 0.00927971, Final residual = 1.69626e-08, No Iterations 3
ExecutionTime = 0.05 s  ClockTime = 0 s

Time = 0.35

nonePBiCG:  Solving for psi, Initial residual = 0.00922862, Final residual = 1.63646e-08, No Iterations 3
ExecutionTime = 0.05 s  ClockTime = 0 s

Time = 0.355

nonePBiCG:  Solving for psi, Initial residual = 0.00917986, Final residual = 1.52415e-08, No Iterations 3
ExecutionTime = 0.05 s  ClockTime = 0 s

Time = 0.36

nonePBiCG:  Solving for psi, Initial residual = 0.00913334, Final residual = 2.1765e-08, No Iterations 3
ExecutionTime = 0.05 s  ClockTime = 0 s

Time = 0.365

nonePBiCG:  Solving for psi, Initial residual = 0.00908896, Final residual = 2.53484e-08, No Iterations 3
ExecutionTime = 0.05 s  ClockTime = 0 s

Time = 0.37

nonePBiCG:  Solving for psi, Initial residual = 0.0090466, Final residual = 2.08726e-08, No Iterations 3
ExecutionTime = 0.05 s  ClockTime = 0 s

Time = 0.375

nonePBiCG:  Solving for psi, Initial residual = 0.0090062, Final residual = 2.01228e-08, No Iterations 3
ExecutionTime = 0.05 s  ClockTime = 0 s

Time = 0.38

nonePBiCG:  Solving for psi, Initial residual = 0.00896768, Final residual = 2.02068e-08, No Iterations 3
ExecutionTime = 0.05 s  ClockTime = 0 s

Time = 0.385

nonePBiCG:  Solving for psi, Initial residual = 0.00893095, Final residual = 2.07172e-08, No Iterations 3
ExecutionTime = 0.05 s  ClockTime = 0 s

Time = 0.39

nonePBiCG:  Solving for psi, Initial residual = 0.00889594, Final residual = 2.15757e-08, No Iterations 3
ExecutionTime = 0.05 s  ClockTime = 0 s

Time = 0.395

nonePBiCG:  Solving for psi, Initial residual = 0.00886258, Final residual = 2.28011e-08, No Iterations 3
ExecutionTime = 0.05 s  ClockTime = 0 s

Time = 0.4

nonePBiCG:  Solving for psi, Initial residual = 0.0088308, Final residual = 2.44848e-08, No Iterations 3
ExecutionTime = 0.05 s  ClockTime = 0 s

Time = 0.405

nonePBiCG:  Solving for psi, Initial residual = 0.00880054, Final residual = 2.68043e-08, No Iterations 3
ExecutionTime = 0.05 s  ClockTime = 0 s

Time = 0.41

nonePBiCG:  Solving for psi, Initial residual = 0.00877173, Final residual = 3.00861e-08, No Iterations 3
ExecutionTime = 0.05 s  ClockTime = 0 s

Time = 0.415

nonePBiCG:  Solving for psi, Initial residual = 0.00874433, Final residual = 3.49636e-08, No Iterations 3
ExecutionTime = 0.05 s  ClockTime = 0 s

Time = 0.42

nonePBiCG:  Solving for psi, Initial residual = 0.00871828, Final residual = 4.28218e-08, No Iterations 3
ExecutionTime = 0.05 s  ClockTime = 0 s

Time = 0.425

nonePBiCG:  Solving for psi, Initial residual = 0.00869352, Final residual = 5.73518e-08, No Iterations 3
ExecutionTime = 0.05 s  ClockTime = 0 s

Time = 0.43

nonePBiCG:  Solving for psi, Initial residual = 0.00867, Final residual = 9.27227e-08, No Iterations 3
ExecutionTime = 0.05 s  ClockTime = 0 s

Time = 0.435

nonePBiCG:  Solving for psi, Initial residual = 0.00864767, Final residual = 3.01432e-07, No Iterations 3
ExecutionTime = 0.05 s  ClockTime = 0 s

Time = 0.44

nonePBiCG:  Solving for psi, Initial residual = 0.00862645, Final residual = 1.96766e-07, No Iterations 3
ExecutionTime = 0.05 s  ClockTime = 0 s

Time = 0.445

nonePBiCG:  Solving for psi, Initial residual = 0.00860651, Final residual = 9.83867e-07, No Iterations 2
ExecutionTime = 0.05 s  ClockTime = 0 s

Time = 0.45

nonePBiCG:  Solving for psi, Initial residual = 0.00858725, Final residual = 9.49904e-07, No Iterations 2
ExecutionTime = 0.06 s  ClockTime = 0 s

Time = 0.455

nonePBiCG:  Solving for psi, Initial residual = 0.00856921, Final residual = 9.17356e-07, No Iterations 2
ExecutionTime = 0.06 s  ClockTime = 0 s

Time = 0.46

nonePBiCG:  Solving for psi, Initial residual = 0.00855222, Final residual = 8.85961e-07, No Iterations 2
ExecutionTime = 0.06 s  ClockTime = 0 s

Time = 0.465

nonePBiCG:  Solving for psi, Initial residual = 0.00853622, Final residual = 8.55915e-07, No Iterations 2
ExecutionTime = 0.06 s  ClockTime = 0 s

Time = 0.47

nonePBiCG:  Solving for psi, Initial residual = 0.00852114, Final residual = 8.36025e-07, No Iterations 2
ExecutionTime = 0.06 s  ClockTime = 0 s

Time = 0.475

nonePBiCG:  Solving for psi, Initial residual = 0.00850695, Final residual = 8.22156e-07, No Iterations 2
ExecutionTime = 0.06 s  ClockTime = 0 s

Time = 0.48

nonePBiCG:  Solving for psi, Initial residual = 0.00849362, Final residual = 8.08152e-07, No Iterations 2
ExecutionTime = 0.06 s  ClockTime = 0 s

Time = 0.485

nonePBiCG:  Solving for psi, Initial residual = 0.00848111, Final residual = 7.9403e-07, No Iterations 2
ExecutionTime = 0.06 s  ClockTime = 0 s

Time = 0.49

nonePBiCG:  Solving for psi, Initial residual = 0.00846941, Final residual = 7.79807e-07, No Iterations 2
ExecutionTime = 0.06 s  ClockTime = 0 s

Time = 0.495

nonePBiCG:  Solving for psi, Initial residual = 0.00845847, Final residual = 7.65499e-07, No Iterations 2
ExecutionTime = 0.06 s  ClockTime = 0 s

Time = 0.5

nonePBiCG:  Solving for psi, Initial residual = 0.00844828, Final residual = 7.51121e-07, No Iterations 2
ExecutionTime = 0.06 s  ClockTime = 0 s

Time = 0.505

nonePBiCG:  Solving for psi, Initial residual = 0.0084388, Final residual = 7.36686e-07, No Iterations 2
ExecutionTime = 0.06 s  ClockTime = 0 s

Time = 0.51

nonePBiCG:  Solving for psi, Initial residual = 0.00843002, Final residual = 7.22207e-07, No Iterations 2
ExecutionTime = 0.06 s  ClockTime = 0 s

Time = 0.515

nonePBiCG:  Solving for psi, Initial residual = 0.0084219, Final residual = 7.07695e-07, No Iterations 2
ExecutionTime = 0.06 s  ClockTime = 0 s

Time = 0.52

nonePBiCG:  Solving for psi, Initial residual = 0.00841444, Final residual = 6.93162e-07, No Iterations 2
ExecutionTime = 0.06 s  ClockTime = 0 s

Time = 0.525

nonePBiCG:  Solving for psi, Initial residual = 0.0084076, Final residual = 6.78619e-07, No Iterations 2
ExecutionTime = 0.06 s  ClockTime = 0 s

Time = 0.53

nonePBiCG:  Solving for psi, Initial residual = 0.00840136, Final residual = 6.64077e-07, No Iterations 2
ExecutionTime = 0.06 s  ClockTime = 0 s

Time = 0.535

nonePBiCG:  Solving for psi, Initial residual = 0.00839571, Final residual = 6.49545e-07, No Iterations 2
ExecutionTime = 0.06 s  ClockTime = 0 s

Time = 0.54

nonePBiCG:  Solving for psi, Initial residual = 0.00839062, Final residual = 6.35033e-07, No Iterations 2
ExecutionTime = 0.06 s  ClockTime = 0 s

Time = 0.545

nonePBiCG:  Solving for psi, Initial residual = 0.00838607, Final residual = 6.20552e-07, No Iterations 2
ExecutionTime = 0.06 s  ClockTime = 0 s

Time = 0.55

nonePBiCG:  Solving for psi, Initial residual = 0.00838206, Final residual = 6.0611e-07, No Iterations 2
ExecutionTime = 0.06 s  ClockTime = 0 s

Time = 0.555

nonePBiCG:  Solving for psi, Initial residual = 0.00837856, Final residual = 5.91716e-07, No Iterations 2
ExecutionTime = 0.06 s  ClockTime = 0 s

Time = 0.56

nonePBiCG:  Solving for psi, Initial residual = 0.00837555, Final residual = 5.77379e-07, No Iterations 2
ExecutionTime = 0.06 s  ClockTime = 0 s

Time = 0.565

nonePBiCG:  Solving for psi, Initial residual = 0.00837301, Final residual = 5.63109e-07, No Iterations 2
ExecutionTime = 0.06 s  ClockTime = 0 s

Time = 0.57

nonePBiCG:  Solving for psi, Initial residual = 0.00837094, Final residual = 5.48913e-07, No Iterations 2
ExecutionTime = 0.06 s  ClockTime = 0 s

Time = 0.575

nonePBiCG:  Solving for psi, Initial residual = 0.00836932, Final residual = 5.34802e-07, No Iterations 2
ExecutionTime = 0.06 s  ClockTime = 0 s

Time = 0.58

nonePBiCG:  Solving for psi, Initial residual = 0.00836813, Final residual = 5.20782e-07, No Iterations 2
ExecutionTime = 0.06 s  ClockTime = 0 s

Time = 0.585

nonePBiCG:  Solving for psi, Initial residual = 0.00836737, Final residual = 5.06862e-07, No Iterations 2
ExecutionTime = 0.06 s  ClockTime = 0 s

Time = 0.59

nonePBiCG:  Solving for psi, Initial residual = 0.00836074, Final residual = 4.92682e-07, No Iterations 2
ExecutionTime = 0.06 s  ClockTime = 0 s

Time = 0.595

nonePBiCG:  Solving for psi, Initial residual = 0.00835007, Final residual = 4.78384e-07, No Iterations 2
ExecutionTime = 0.06 s  ClockTime = 0 s

Time = 0.6

nonePBiCG:  Solving for psi, Initial residual = 0.00833986, Final residual = 4.64251e-07, No Iterations 2
ExecutionTime = 0.06 s  ClockTime = 0 s

Time = 0.605

nonePBiCG:  Solving for psi, Initial residual = 0.00833011, Final residual = 4.50289e-07, No Iterations 2
ExecutionTime = 0.06 s  ClockTime = 0 s

Time = 0.61

nonePBiCG:  Solving for psi, Initial residual = 0.00831052, Final residual = 4.35964e-07, No Iterations 2
ExecutionTime = 0.06 s  ClockTime = 0 s

Time = 0.615

nonePBiCG:  Solving for psi, Initial residual = 0.00829125, Final residual = 4.21851e-07, No Iterations 2
ExecutionTime = 0.06 s  ClockTime = 0 s

Time = 0.62

nonePBiCG:  Solving for psi, Initial residual = 0.00827253, Final residual = 4.07967e-07, No Iterations 2
ExecutionTime = 0.06 s  ClockTime = 0 s

Time = 0.625

nonePBiCG:  Solving for psi, Initial residual = 0.00825434, Final residual = 3.94316e-07, No Iterations 2
ExecutionTime = 0.06 s  ClockTime = 0 s

Time = 0.63

nonePBiCG:  Solving for psi, Initial residual = 0.00823667, Final residual = 3.80903e-07, No Iterations 2
ExecutionTime = 0.06 s  ClockTime = 0 s

Time = 0.635

nonePBiCG:  Solving for psi, Initial residual = 0.0082195, Final residual = 3.67732e-07, No Iterations 2
ExecutionTime = 0.06 s  ClockTime = 0 s

Time = 0.64

nonePBiCG:  Solving for psi, Initial residual = 0.00820282, Final residual = 3.54807e-07, No Iterations 2
ExecutionTime = 0.06 s  ClockTime = 0 s

Time = 0.645

nonePBiCG:  Solving for psi, Initial residual = 0.00818662, Final residual = 3.42131e-07, No Iterations 2
ExecutionTime = 0.06 s  ClockTime = 0 s

Time = 0.65

nonePBiCG:  Solving for psi, Initial residual = 0.00817088, Final residual = 3.29708e-07, No Iterations 2
ExecutionTime = 0.06 s  ClockTime = 0 s

Time = 0.655

nonePBiCG:  Solving for psi, Initial residual = 0.00815559, Final residual = 3.1754e-07, No Iterations 2
ExecutionTime = 0.06 s  ClockTime = 0 s

Time = 0.66

nonePBiCG:  Solving for psi, Initial residual = 0.00814074, Final residual = 3.0563e-07, No Iterations 2
ExecutionTime = 0.06 s  ClockTime = 0 s

Time = 0.665

nonePBiCG:  Solving for psi, Initial residual = 0.00812631, Final residual = 2.9398e-07, No Iterations 2
ExecutionTime = 0.06 s  ClockTime = 0 s

Time = 0.67

nonePBiCG:  Solving for psi, Initial residual = 0.0081123, Final residual = 2.82591e-07, No Iterations 2
ExecutionTime = 0.06 s  ClockTime = 0 s

Time = 0.675

nonePBiCG:  Solving for psi, Initial residual = 0.00809869, Final residual = 2.71467e-07, No Iterations 2
ExecutionTime = 0.06 s  ClockTime = 0 s

Time = 0.68

nonePBiCG:  Solving for psi, Initial residual = 0.00808547, Final residual = 2.60606e-07, No Iterations 2
ExecutionTime = 0.06 s  ClockTime = 0 s

Time = 0.685

nonePBiCG:  Solving for psi, Initial residual = 0.00807263, Final residual = 2.50011e-07, No Iterations 2
ExecutionTime = 0.06 s  ClockTime = 0 s

Time = 0.69

nonePBiCG:  Solving for psi, Initial residual = 0.00806017, Final residual = 2.39682e-07, No Iterations 2
ExecutionTime = 0.06 s  ClockTime = 0 s

Time = 0.695

nonePBiCG:  Solving for psi, Initial residual = 0.00804806, Final residual = 2.29619e-07, No Iterations 2
ExecutionTime = 0.06 s  ClockTime = 0 s

Time = 0.7

nonePBiCG:  Solving for psi, Initial residual = 0.00803631, Final residual = 2.19821e-07, No Iterations 2
ExecutionTime = 0.06 s  ClockTime = 0 s

Time = 0.705

nonePBiCG:  Solving for psi, Initial residual = 0.0080249, Final residual = 2.1203e-07, No Iterations 2
ExecutionTime = 0.06 s  ClockTime = 0 s

Time = 0.71

nonePBiCG:  Solving for psi, Initial residual = 0.00801383, Final residual = 2.06104e-07, No Iterations 2
ExecutionTime = 0.06 s  ClockTime = 0 s

Time = 0.715

nonePBiCG:  Solving for psi, Initial residual = 0.00800308, Final residual = 2.01424e-07, No Iterations 2
ExecutionTime = 0.06 s  ClockTime = 0 s

Time = 0.72

nonePBiCG:  Solving for psi, Initial residual = 0.00799265, Final residual = 1.9855e-07, No Iterations 2
ExecutionTime = 0.06 s  ClockTime = 0 s

Time = 0.725

nonePBiCG:  Solving for psi, Initial residual = 0.00798252, Final residual = 1.95614e-07, No Iterations 2
ExecutionTime = 0.07 s  ClockTime = 0 s

Time = 0.73

nonePBiCG:  Solving for psi, Initial residual = 0.0079727, Final residual = 1.92624e-07, No Iterations 2
ExecutionTime = 0.07 s  ClockTime = 0 s

Time = 0.735

nonePBiCG:  Solving for psi, Initial residual = 0.00796317, Final residual = 1.89585e-07, No Iterations 2
ExecutionTime = 0.07 s  ClockTime = 0 s

Time = 0.74

nonePBiCG:  Solving for psi, Initial residual = 0.00795393, Final residual = 1.86505e-07, No Iterations 2
ExecutionTime = 0.07 s  ClockTime = 0 s

Time = 0.745

nonePBiCG:  Solving for psi, Initial residual = 0.00794496, Final residual = 1.8339e-07, No Iterations 2
ExecutionTime = 0.07 s  ClockTime = 0 s

Time = 0.75

nonePBiCG:  Solving for psi, Initial residual = 0.00793627, Final residual = 1.80246e-07, No Iterations 2
ExecutionTime = 0.07 s  ClockTime = 0 s

Time = 0.755

nonePBiCG:  Solving for psi, Initial residual = 0.00792784, Final residual = 1.77079e-07, No Iterations 2
ExecutionTime = 0.07 s  ClockTime = 0 s

Time = 0.76

nonePBiCG:  Solving for psi, Initial residual = 0.00791967, Final residual = 1.73895e-07, No Iterations 2
ExecutionTime = 0.07 s  ClockTime = 0 s

Time = 0.765

nonePBiCG:  Solving for psi, Initial residual = 0.00791175, Final residual = 1.707e-07, No Iterations 2
ExecutionTime = 0.07 s  ClockTime = 0 s

Time = 0.77

nonePBiCG:  Solving for psi, Initial residual = 0.00790407, Final residual = 1.67498e-07, No Iterations 2
ExecutionTime = 0.07 s  ClockTime = 0 s

Time = 0.775

nonePBiCG:  Solving for psi, Initial residual = 0.00789664, Final residual = 1.64294e-07, No Iterations 2
ExecutionTime = 0.07 s  ClockTime = 0 s

Time = 0.78

nonePBiCG:  Solving for psi, Initial residual = 0.00788943, Final residual = 1.61092e-07, No Iterations 2
ExecutionTime = 0.07 s  ClockTime = 0 s

Time = 0.785

nonePBiCG:  Solving for psi, Initial residual = 0.00788246, Final residual = 1.57898e-07, No Iterations 2
ExecutionTime = 0.07 s  ClockTime = 0 s

Time = 0.79

nonePBiCG:  Solving for psi, Initial residual = 0.00787571, Final residual = 1.54714e-07, No Iterations 2
ExecutionTime = 0.07 s  ClockTime = 0 s

Time = 0.795

nonePBiCG:  Solving for psi, Initial residual = 0.00786917, Final residual = 1.51546e-07, No Iterations 2
ExecutionTime = 0.07 s  ClockTime = 0 s

Time = 0.8

nonePBiCG:  Solving for psi, Initial residual = 0.00786285, Final residual = 1.48395e-07, No Iterations 2
ExecutionTime = 0.07 s  ClockTime = 0 s

Time = 0.805

nonePBiCG:  Solving for psi, Initial residual = 0.00785673, Final residual = 1.45266e-07, No Iterations 2
ExecutionTime = 0.08 s  ClockTime = 0 s

Time = 0.81

nonePBiCG:  Solving for psi, Initial residual = 0.00785081, Final residual = 1.42162e-07, No Iterations 2
ExecutionTime = 0.08 s  ClockTime = 0 s

Time = 0.815

nonePBiCG:  Solving for psi, Initial residual = 0.00784509, Final residual = 1.39086e-07, No Iterations 2
ExecutionTime = 0.08 s  ClockTime = 0 s

Time = 0.82

nonePBiCG:  Solving for psi, Initial residual = 0.00783957, Final residual = 1.36039e-07, No Iterations 2
ExecutionTime = 0.08 s  ClockTime = 0 s

Time = 0.825

nonePBiCG:  Solving for psi, Initial residual = 0.00783423, Final residual = 1.33025e-07, No Iterations 2
ExecutionTime = 0.08 s  ClockTime = 0 s

Time = 0.83

nonePBiCG:  Solving for psi, Initial residual = 0.00782907, Final residual = 1.30045e-07, No Iterations 2
ExecutionTime = 0.08 s  ClockTime = 0 s

Time = 0.835

nonePBiCG:  Solving for psi, Initial residual = 0.00782409, Final residual = 1.27102e-07, No Iterations 2
ExecutionTime = 0.08 s  ClockTime = 0 s

Time = 0.84

nonePBiCG:  Solving for psi, Initial residual = 0.00781928, Final residual = 1.24197e-07, No Iterations 2
ExecutionTime = 0.08 s  ClockTime = 0 s

Time = 0.845

nonePBiCG:  Solving for psi, Initial residual = 0.00781465, Final residual = 1.21331e-07, No Iterations 2
ExecutionTime = 0.08 s  ClockTime = 0 s

Time = 0.85

nonePBiCG:  Solving for psi, Initial residual = 0.00781018, Final residual = 1.18508e-07, No Iterations 2
ExecutionTime = 0.08 s  ClockTime = 0 s

Time = 0.855

nonePBiCG:  Solving for psi, Initial residual = 0.00780587, Final residual = 1.15726e-07, No Iterations 2
ExecutionTime = 0.08 s  ClockTime = 0 s

Time = 0.86

nonePBiCG:  Solving for psi, Initial residual = 0.00780172, Final residual = 1.12989e-07, No Iterations 2
ExecutionTime = 0.08 s  ClockTime = 0 s

Time = 0.865

nonePBiCG:  Solving for psi, Initial residual = 0.00779773, Final residual = 1.10295e-07, No Iterations 2
ExecutionTime = 0.08 s  ClockTime = 0 s

Time = 0.87

nonePBiCG:  Solving for psi, Initial residual = 0.00779389, Final residual = 1.07647e-07, No Iterations 2
ExecutionTime = 0.08 s  ClockTime = 0 s

Time = 0.875

nonePBiCG:  Solving for psi, Initial residual = 0.00779019, Final residual = 1.05692e-07, No Iterations 2
ExecutionTime = 0.08 s  ClockTime = 0 s

Time = 0.88

nonePBiCG:  Solving for psi, Initial residual = 0.00778664, Final residual = 1.04627e-07, No Iterations 2
ExecutionTime = 0.08 s  ClockTime = 0 s

Time = 0.885

nonePBiCG:  Solving for psi, Initial residual = 0.00778323, Final residual = 1.03548e-07, No Iterations 2
ExecutionTime = 0.08 s  ClockTime = 0 s

Time = 0.89

nonePBiCG:  Solving for psi, Initial residual = 0.00777996, Final residual = 1.02458e-07, No Iterations 2
ExecutionTime = 0.08 s  ClockTime = 0 s

Time = 0.895

nonePBiCG:  Solving for psi, Initial residual = 0.00777683, Final residual = 1.01358e-07, No Iterations 2
ExecutionTime = 0.08 s  ClockTime = 0 s

Time = 0.9

nonePBiCG:  Solving for psi, Initial residual = 0.00777382, Final residual = 1.00249e-07, No Iterations 2
ExecutionTime = 0.08 s  ClockTime = 0 s

Time = 0.905

nonePBiCG:  Solving for psi, Initial residual = 0.00777094, Final residual = 9.91323e-08, No Iterations 2
ExecutionTime = 0.08 s  ClockTime = 0 s

Time = 0.91

nonePBiCG:  Solving for psi, Initial residual = 0.00776819, Final residual = 9.80098e-08, No Iterations 2
ExecutionTime = 0.08 s  ClockTime = 0 s

Time = 0.915

nonePBiCG:  Solving for psi, Initial residual = 0.00776556, Final residual = 9.68826e-08, No Iterations 2
ExecutionTime = 0.08 s  ClockTime = 0 s

Time = 0.92

nonePBiCG:  Solving for psi, Initial residual = 0.00776305, Final residual = 9.57518e-08, No Iterations 2
ExecutionTime = 0.08 s  ClockTime = 0 s

Time = 0.925

nonePBiCG:  Solving for psi, Initial residual = 0.00776066, Final residual = 9.46186e-08, No Iterations 2
ExecutionTime = 0.08 s  ClockTime = 0 s

Time = 0.93

nonePBiCG:  Solving for psi, Initial residual = 0.00775839, Final residual = 9.3484e-08, No Iterations 2
ExecutionTime = 0.08 s  ClockTime = 0 s

Time = 0.935

nonePBiCG:  Solving for psi, Initial residual = 0.00775622, Final residual = 9.23492e-08, No Iterations 2
ExecutionTime = 0.08 s  ClockTime = 0 s

Time = 0.94

nonePBiCG:  Solving for psi, Initial residual = 0.00775417, Final residual = 9.1215e-08, No Iterations 2
ExecutionTime = 0.08 s  ClockTime = 0 s

Time = 0.945

nonePBiCG:  Solving for psi, Initial residual = 0.00775222, Final residual = 9.00823e-08, No Iterations 2
ExecutionTime = 0.08 s  ClockTime = 0 s

Time = 0.95

nonePBiCG:  Solving for psi, Initial residual = 0.00775037, Final residual = 8.89521e-08, No Iterations 2
ExecutionTime = 0.08 s  ClockTime = 0 s

Time = 0.955

nonePBiCG:  Solving for psi, Initial residual = 0.00774863, Final residual = 8.78252e-08, No Iterations 2
ExecutionTime = 0.08 s  ClockTime = 0 s

Time = 0.96

nonePBiCG:  Solving for psi, Initial residual = 0.00774699, Final residual = 8.67022e-08, No Iterations 2
ExecutionTime = 0.08 s  ClockTime = 0 s

Time = 0.965

nonePBiCG:  Solving for psi, Initial residual = 0.00774545, Final residual = 8.55839e-08, No Iterations 2
ExecutionTime = 0.08 s  ClockTime = 0 s

Time = 0.97

nonePBiCG:  Solving for psi, Initial residual = 0.007744, Final residual = 8.4471e-08, No Iterations 2
ExecutionTime = 0.08 s  ClockTime = 0 s

Time = 0.975

nonePBiCG:  Solving for psi, Initial residual = 0.00774265, Final residual = 8.3364e-08, No Iterations 2
ExecutionTime = 0.08 s  ClockTime = 0 s

Time = 0.98

nonePBiCG:  Solving for psi, Initial residual = 0.00774138, Final residual = 8.22636e-08, No Iterations 2
ExecutionTime = 0.08 s  ClockTime = 0 s

Time = 0.985

nonePBiCG:  Solving for psi, Initial residual = 0.00774021, Final residual = 8.11703e-08, No Iterations 2
ExecutionTime = 0.09 s  ClockTime = 0 s

Time = 0.99

nonePBiCG:  Solving for psi, Initial residual = 0.00773912, Final residual = 8.00846e-08, No Iterations 2
ExecutionTime = 0.09 s  ClockTime = 0 s

Time = 0.995

nonePBiCG:  Solving for psi, Initial residual = 0.00773812, Final residual = 7.90069e-08, No Iterations 2
ExecutionTime = 0.09 s  ClockTime = 0 s

Time = 1

nonePBiCG:  Solving for psi, Initial residual = 0.00773721, Final residual = 7.79376e-08, No Iterations 2
ExecutionTime = 0.09 s  ClockTime = 0 s

Time = 1.005

nonePBiCG:  Solving for psi, Initial residual = 0.00773637, Final residual = 7.68772e-08, No Iterations 2
ExecutionTime = 0.09 s  ClockTime = 0 s

Time = 1.01

nonePBiCG:  Solving for psi, Initial residual = 0.00773562, Final residual = 7.5826e-08, No Iterations 2
ExecutionTime = 0.09 s  ClockTime = 0 s

Time = 1.015

nonePBiCG:  Solving for psi, Initial residual = 0.00773494, Final residual = 7.47842e-08, No Iterations 2
ExecutionTime = 0.09 s  ClockTime = 0 s

Time = 1.02

nonePBiCG:  Solving for psi, Initial residual = 0.00773434, Final residual = 7.37523e-08, No Iterations 2
ExecutionTime = 0.09 s  ClockTime = 0 s

Time = 1.025

nonePBiCG:  Solving for psi, Initial residual = 0.00773382, Final residual = 7.27305e-08, No Iterations 2
ExecutionTime = 0.09 s  ClockTime = 0 s

Time = 1.03

nonePBiCG:  Solving for psi, Initial residual = 0.00773337, Final residual = 7.17189e-08, No Iterations 2
ExecutionTime = 0.09 s  ClockTime = 0 s

Time = 1.035

nonePBiCG:  Solving for psi, Initial residual = 0.00773299, Final residual = 7.07179e-08, No Iterations 2
ExecutionTime = 0.09 s  ClockTime = 0 s

Time = 1.04

nonePBiCG:  Solving for psi, Initial residual = 0.00773268, Final residual = 6.97276e-08, No Iterations 2
ExecutionTime = 0.09 s  ClockTime = 0 s

Time = 1.045

nonePBiCG:  Solving for psi, Initial residual = 0.00773243, Final residual = 6.87482e-08, No Iterations 2
ExecutionTime = 0.09 s  ClockTime = 0 s

Time = 1.05

nonePBiCG:  Solving for psi, Initial residual = 0.00773226, Final residual = 6.77797e-08, No Iterations 2
ExecutionTime = 0.09 s  ClockTime = 0 s

Time = 1.055

nonePBiCG:  Solving for psi, Initial residual = 0.00773215, Final residual = 6.68225e-08, No Iterations 2
ExecutionTime = 0.09 s  ClockTime = 0 s

Time = 1.06

nonePBiCG:  Solving for psi, Initial residual = 0.00773211, Final residual = 6.58764e-08, No Iterations 2
ExecutionTime = 0.09 s  ClockTime = 0 s

Time = 1.065

nonePBiCG:  Solving for psi, Initial residual = 0.00773213, Final residual = 6.49417e-08, No Iterations 2
ExecutionTime = 0.09 s  ClockTime = 0 s

Time = 1.07

nonePBiCG:  Solving for psi, Initial residual = 0.00773221, Final residual = 6.40184e-08, No Iterations 2
ExecutionTime = 0.09 s  ClockTime = 0 s

Time = 1.075

nonePBiCG:  Solving for psi, Initial residual = 0.00773235, Final residual = 6.31066e-08, No Iterations 2
ExecutionTime = 0.09 s  ClockTime = 0 s

Time = 1.08

nonePBiCG:  Solving for psi, Initial residual = 0.00773255, Final residual = 6.22062e-08, No Iterations 2
ExecutionTime = 0.09 s  ClockTime = 0 s

Time = 1.085

nonePBiCG:  Solving for psi, Initial residual = 0.00773281, Final residual = 6.13174e-08, No Iterations 2
ExecutionTime = 0.09 s  ClockTime = 0 s

Time = 1.09

nonePBiCG:  Solving for psi, Initial residual = 0.00773312, Final residual = 6.04401e-08, No Iterations 2
ExecutionTime = 0.09 s  ClockTime = 0 s

Time = 1.095

nonePBiCG:  Solving for psi, Initial residual = 0.00773349, Final residual = 5.95744e-08, No Iterations 2
ExecutionTime = 0.09 s  ClockTime = 0 s

Time = 1.1

nonePBiCG:  Solving for psi, Initial residual = 0.00773391, Final residual = 5.87202e-08, No Iterations 2
ExecutionTime = 0.09 s  ClockTime = 0 s

Time = 1.105

nonePBiCG:  Solving for psi, Initial residual = 0.00773439, Final residual = 5.78775e-08, No Iterations 2
ExecutionTime = 0.09 s  ClockTime = 0 s

Time = 1.11

nonePBiCG:  Solving for psi, Initial residual = 0.00773491, Final residual = 5.70462e-08, No Iterations 2
ExecutionTime = 0.09 s  ClockTime = 0 s

Time = 1.115

nonePBiCG:  Solving for psi, Initial residual = 0.00773549, Final residual = 5.62264e-08, No Iterations 2
ExecutionTime = 0.09 s  ClockTime = 0 s

Time = 1.12

nonePBiCG:  Solving for psi, Initial residual = 0.00773612, Final residual = 5.5418e-08, No Iterations 2
ExecutionTime = 0.09 s  ClockTime = 0 s

Time = 1.125

nonePBiCG:  Solving for psi, Initial residual = 0.00773679, Final residual = 5.4621e-08, No Iterations 2
ExecutionTime = 0.09 s  ClockTime = 0 s

Time = 1.13

nonePBiCG:  Solving for psi, Initial residual = 0.00773751, Final residual = 5.38351e-08, No Iterations 2
ExecutionTime = 0.09 s  ClockTime = 0 s

Time = 1.135

nonePBiCG:  Solving for psi, Initial residual = 0.00773828, Final residual = 5.30605e-08, No Iterations 2
ExecutionTime = 0.09 s  ClockTime = 0 s

Time = 1.14

nonePBiCG:  Solving for psi, Initial residual = 0.0077391, Final residual = 5.2297e-08, No Iterations 2
ExecutionTime = 0.09 s  ClockTime = 0 s

Time = 1.145

nonePBiCG:  Solving for psi, Initial residual = 0.00773996, Final residual = 5.15446e-08, No Iterations 2
ExecutionTime = 0.09 s  ClockTime = 0 s

Time = 1.15

nonePBiCG:  Solving for psi, Initial residual = 0.00774086, Final residual = 5.08031e-08, No Iterations 2
ExecutionTime = 0.09 s  ClockTime = 0 s

Time = 1.155

nonePBiCG:  Solving for psi, Initial residual = 0.0077418, Final residual = 5.00724e-08, No Iterations 2
ExecutionTime = 0.09 s  ClockTime = 0 s

Time = 1.16

nonePBiCG:  Solving for psi, Initial residual = 0.00774279, Final residual = 4.93525e-08, No Iterations 2
ExecutionTime = 0.09 s  ClockTime = 0 s

Time = 1.165

nonePBiCG:  Solving for psi, Initial residual = 0.00774382, Final residual = 4.86433e-08, No Iterations 2
ExecutionTime = 0.09 s  ClockTime = 0 s

Time = 1.17

nonePBiCG:  Solving for psi, Initial residual = 0.00774488, Final residual = 4.79447e-08, No Iterations 2
ExecutionTime = 0.09 s  ClockTime = 0 s

Time = 1.175

nonePBiCG:  Solving for psi, Initial residual = 0.00774599, Final residual = 4.72565e-08, No Iterations 2
ExecutionTime = 0.09 s  ClockTime = 0 s

Time = 1.18

nonePBiCG:  Solving for psi, Initial residual = 0.00774713, Final residual = 4.65786e-08, No Iterations 2
ExecutionTime = 0.09 s  ClockTime = 0 s

Time = 1.185

nonePBiCG:  Solving for psi, Initial residual = 0.00774831, Final residual = 4.5911e-08, No Iterations 2
ExecutionTime = 0.09 s  ClockTime = 0 s

Time = 1.19

nonePBiCG:  Solving for psi, Initial residual = 0.00774953, Final residual = 4.52534e-08, No Iterations 2
ExecutionTime = 0.09 s  ClockTime = 0 s

Time = 1.195

nonePBiCG:  Solving for psi, Initial residual = 0.00775078, Final residual = 4.46059e-08, No Iterations 2
ExecutionTime = 0.09 s  ClockTime = 0 s

Time = 1.2

nonePBiCG:  Solving for psi, Initial residual = 0.00775207, Final residual = 4.39683e-08, No Iterations 2
ExecutionTime = 0.09 s  ClockTime = 0 s

Time = 1.205

nonePBiCG:  Solving for psi, Initial residual = 0.0077534, Final residual = 4.33404e-08, No Iterations 2
ExecutionTime = 0.09 s  ClockTime = 0 s

Time = 1.21

nonePBiCG:  Solving for psi, Initial residual = 0.00775475, Final residual = 4.27222e-08, No Iterations 2
ExecutionTime = 0.09 s  ClockTime = 0 s

Time = 1.215

nonePBiCG:  Solving for psi, Initial residual = 0.00775614, Final residual = 4.21135e-08, No Iterations 2
ExecutionTime = 0.09 s  ClockTime = 0 s

Time = 1.22

nonePBiCG:  Solving for psi, Initial residual = 0.00775756, Final residual = 4.15141e-08, No Iterations 2
ExecutionTime = 0.09 s  ClockTime = 0 s

Time = 1.225

nonePBiCG:  Solving for psi, Initial residual = 0.00775901, Final residual = 4.09241e-08, No Iterations 2
ExecutionTime = 0.09 s  ClockTime = 0 s

Time = 1.23

nonePBiCG:  Solving for psi, Initial residual = 0.00776049, Final residual = 4.03432e-08, No Iterations 2
ExecutionTime = 0.09 s  ClockTime = 0 s

Time = 1.235

nonePBiCG:  Solving for psi, Initial residual = 0.007762, Final residual = 3.97714e-08, No Iterations 2
ExecutionTime = 0.09 s  ClockTime = 0 s

Time = 1.24

nonePBiCG:  Solving for psi, Initial residual = 0.00776355, Final residual = 3.92084e-08, No Iterations 2
ExecutionTime = 0.09 s  ClockTime = 0 s

Time = 1.245

nonePBiCG:  Solving for psi, Initial residual = 0.00776512, Final residual = 3.86542e-08, No Iterations 2
ExecutionTime = 0.09 s  ClockTime = 0 s

Time = 1.25

nonePBiCG:  Solving for psi, Initial residual = 0.00776671, Final residual = 3.81087e-08, No Iterations 2
ExecutionTime = 0.1 s  ClockTime = 0 s

Time = 1.255

nonePBiCG:  Solving for psi, Initial residual = 0.00776834, Final residual = 3.75717e-08, No Iterations 2
ExecutionTime = 0.1 s  ClockTime = 0 s

Time = 1.26

nonePBiCG:  Solving for psi, Initial residual = 0.00776999, Final residual = 3.70431e-08, No Iterations 2
ExecutionTime = 0.1 s  ClockTime = 0 s

Time = 1.265

nonePBiCG:  Solving for psi, Initial residual = 0.00777167, Final residual = 3.65228e-08, No Iterations 2
ExecutionTime = 0.1 s  ClockTime = 0 s

Time = 1.27

nonePBiCG:  Solving for psi, Initial residual = 0.00777337, Final residual = 3.60107e-08, No Iterations 2
ExecutionTime = 0.1 s  ClockTime = 0 s

Time = 1.275

nonePBiCG:  Solving for psi, Initial residual = 0.0077751, Final residual = 3.55066e-08, No Iterations 2
ExecutionTime = 0.1 s  ClockTime = 0 s

Time = 1.28

nonePBiCG:  Solving for psi, Initial residual = 0.00777685, Final residual = 3.50105e-08, No Iterations 2
ExecutionTime = 0.1 s  ClockTime = 0 s

Time = 1.285

nonePBiCG:  Solving for psi, Initial residual = 0.00777863, Final residual = 3.45221e-08, No Iterations 2
ExecutionTime = 0.1 s  ClockTime = 0 s

Time = 1.29

nonePBiCG:  Solving for psi, Initial residual = 0.00778043, Final residual = 3.40414e-08, No Iterations 2
ExecutionTime = 0.1 s  ClockTime = 0 s

Time = 1.295

nonePBiCG:  Solving for psi, Initial residual = 0.00778226, Final residual = 3.35683e-08, No Iterations 2
ExecutionTime = 0.1 s  ClockTime = 0 s

Time = 1.3

nonePBiCG:  Solving for psi, Initial residual = 0.0077841, Final residual = 3.31027e-08, No Iterations 2
ExecutionTime = 0.1 s  ClockTime = 0 s

Time = 1.305

nonePBiCG:  Solving for psi, Initial residual = 0.00778597, Final residual = 3.26444e-08, No Iterations 2
ExecutionTime = 0.1 s  ClockTime = 0 s

Time = 1.31

nonePBiCG:  Solving for psi, Initial residual = 0.00778786, Final residual = 3.21933e-08, No Iterations 2
ExecutionTime = 0.1 s  ClockTime = 0 s

Time = 1.315

nonePBiCG:  Solving for psi, Initial residual = 0.00778977, Final residual = 3.17493e-08, No Iterations 2
ExecutionTime = 0.1 s  ClockTime = 0 s

Time = 1.32

nonePBiCG:  Solving for psi, Initial residual = 0.0077917, Final residual = 3.13123e-08, No Iterations 2
ExecutionTime = 0.1 s  ClockTime = 0 s

Time = 1.325

nonePBiCG:  Solving for psi, Initial residual = 0.00779365, Final residual = 3.08822e-08, No Iterations 2
ExecutionTime = 0.1 s  ClockTime = 0 s

Time = 1.33

nonePBiCG:  Solving for psi, Initial residual = 0.00779562, Final residual = 3.04588e-08, No Iterations 2
ExecutionTime = 0.1 s  ClockTime = 0 s

Time = 1.335

nonePBiCG:  Solving for psi, Initial residual = 0.00779761, Final residual = 3.00421e-08, No Iterations 2
ExecutionTime = 0.1 s  ClockTime = 0 s

Time = 1.34

nonePBiCG:  Solving for psi, Initial residual = 0.00779962, Final residual = 2.9632e-08, No Iterations 2
ExecutionTime = 0.1 s  ClockTime = 0 s

Time = 1.345

nonePBiCG:  Solving for psi, Initial residual = 0.00780164, Final residual = 2.92283e-08, No Iterations 2
ExecutionTime = 0.1 s  ClockTime = 0 s

Time = 1.35

nonePBiCG:  Solving for psi, Initial residual = 0.00780369, Final residual = 2.8831e-08, No Iterations 2
ExecutionTime = 0.1 s  ClockTime = 0 s

Time = 1.355

nonePBiCG:  Solving for psi, Initial residual = 0.00780575, Final residual = 2.84399e-08, No Iterations 2
ExecutionTime = 0.1 s  ClockTime = 0 s

Time = 1.36

nonePBiCG:  Solving for psi, Initial residual = 0.00780782, Final residual = 2.8055e-08, No Iterations 2
ExecutionTime = 0.11 s  ClockTime = 0 s

Time = 1.365

nonePBiCG:  Solving for psi, Initial residual = 0.00780992, Final residual = 2.76761e-08, No Iterations 2
ExecutionTime = 0.11 s  ClockTime = 0 s

Time = 1.37

nonePBiCG:  Solving for psi, Initial residual = 0.00781203, Final residual = 2.73031e-08, No Iterations 2
ExecutionTime = 0.11 s  ClockTime = 0 s

Time = 1.375

nonePBiCG:  Solving for psi, Initial residual = 0.00781416, Final residual = 2.6936e-08, No Iterations 2
ExecutionTime = 0.11 s  ClockTime = 0 s

Time = 1.38

nonePBiCG:  Solving for psi, Initial residual = 0.0078163, Final residual = 2.65746e-08, No Iterations 2
ExecutionTime = 0.11 s  ClockTime = 0 s

Time = 1.385

nonePBiCG:  Solving for psi, Initial residual = 0.00781845, Final residual = 2.62189e-08, No Iterations 2
ExecutionTime = 0.11 s  ClockTime = 0 s

Time = 1.39

nonePBiCG:  Solving for psi, Initial residual = 0.00782063, Final residual = 2.58687e-08, No Iterations 2
ExecutionTime = 0.11 s  ClockTime = 0 s

Time = 1.395

nonePBiCG:  Solving for psi, Initial residual = 0.00782281, Final residual = 2.55241e-08, No Iterations 2
ExecutionTime = 0.11 s  ClockTime = 0 s

Time = 1.4

nonePBiCG:  Solving for psi, Initial residual = 0.00782501, Final residual = 2.51847e-08, No Iterations 2
ExecutionTime = 0.11 s  ClockTime = 0 s

Time = 1.405

nonePBiCG:  Solving for psi, Initial residual = 0.00782723, Final residual = 2.48507e-08, No Iterations 2
ExecutionTime = 0.11 s  ClockTime = 0 s

Time = 1.41

nonePBiCG:  Solving for psi, Initial residual = 0.00782945, Final residual = 2.45218e-08, No Iterations 2
ExecutionTime = 0.11 s  ClockTime = 0 s

Time = 1.415

nonePBiCG:  Solving for psi, Initial residual = 0.00783169, Final residual = 2.41981e-08, No Iterations 2
ExecutionTime = 0.11 s  ClockTime = 0 s

Time = 1.42

nonePBiCG:  Solving for psi, Initial residual = 0.00783394, Final residual = 2.38794e-08, No Iterations 2
ExecutionTime = 0.11 s  ClockTime = 0 s

Time = 1.425

nonePBiCG:  Solving for psi, Initial residual = 0.00783621, Final residual = 2.35656e-08, No Iterations 2
ExecutionTime = 0.11 s  ClockTime = 0 s

Time = 1.43

nonePBiCG:  Solving for psi, Initial residual = 0.00783849, Final residual = 2.32567e-08, No Iterations 2
ExecutionTime = 0.11 s  ClockTime = 0 s

Time = 1.435

nonePBiCG:  Solving for psi, Initial residual = 0.00784077, Final residual = 2.29526e-08, No Iterations 2
ExecutionTime = 0.11 s  ClockTime = 0 s

Time = 1.44

nonePBiCG:  Solving for psi, Initial residual = 0.00784307, Final residual = 2.26531e-08, No Iterations 2
ExecutionTime = 0.11 s  ClockTime = 0 s

Time = 1.445

nonePBiCG:  Solving for psi, Initial residual = 0.00784539, Final residual = 2.23583e-08, No Iterations 2
ExecutionTime = 0.11 s  ClockTime = 0 s

Time = 1.45

nonePBiCG:  Solving for psi, Initial residual = 0.00784771, Final residual = 2.2068e-08, No Iterations 2
ExecutionTime = 0.11 s  ClockTime = 0 s

Time = 1.455

nonePBiCG:  Solving for psi, Initial residual = 0.00785004, Final residual = 2.17822e-08, No Iterations 2
ExecutionTime = 0.11 s  ClockTime = 0 s

Time = 1.46

nonePBiCG:  Solving for psi, Initial residual = 0.00785238, Final residual = 2.15007e-08, No Iterations 2
ExecutionTime = 0.11 s  ClockTime = 0 s

Time = 1.465

nonePBiCG:  Solving for psi, Initial residual = 0.00785474, Final residual = 2.12236e-08, No Iterations 2
ExecutionTime = 0.11 s  ClockTime = 0 s

Time = 1.47

nonePBiCG:  Solving for psi, Initial residual = 0.0078571, Final residual = 2.09507e-08, No Iterations 2
ExecutionTime = 0.11 s  ClockTime = 0 s

Time = 1.475

nonePBiCG:  Solving for psi, Initial residual = 0.00785947, Final residual = 2.0682e-08, No Iterations 2
ExecutionTime = 0.12 s  ClockTime = 0 s

Time = 1.48

nonePBiCG:  Solving for psi, Initial residual = 0.00786185, Final residual = 2.04174e-08, No Iterations 2
ExecutionTime = 0.12 s  ClockTime = 0 s

Time = 1.485

nonePBiCG:  Solving for psi, Initial residual = 0.00786424, Final residual = 2.01568e-08, No Iterations 2
ExecutionTime = 0.12 s  ClockTime = 0 s

Time = 1.49

nonePBiCG:  Solving for psi, Initial residual = 0.00786664, Final residual = 1.99001e-08, No Iterations 2
ExecutionTime = 0.12 s  ClockTime = 0 s

Time = 1.495

nonePBiCG:  Solving for psi, Initial residual = 0.00786905, Final residual = 1.96474e-08, No Iterations 2
ExecutionTime = 0.12 s  ClockTime = 0 s

Time = 1.5

nonePBiCG:  Solving for psi, Initial residual = 0.00787147, Final residual = 1.93985e-08, No Iterations 2
ExecutionTime = 0.12 s  ClockTime = 0 s

Time = 1.505

nonePBiCG:  Solving for psi, Initial residual = 0.00787389, Final residual = 1.91533e-08, No Iterations 2
ExecutionTime = 0.12 s  ClockTime = 0 s

Time = 1.51

nonePBiCG:  Solving for psi, Initial residual = 0.00787632, Final residual = 1.89119e-08, No Iterations 2
ExecutionTime = 0.12 s  ClockTime = 0 s

Time = 1.515

nonePBiCG:  Solving for psi, Initial residual = 0.00787876, Final residual = 1.86741e-08, No Iterations 2
ExecutionTime = 0.12 s  ClockTime = 0 s

Time = 1.52

nonePBiCG:  Solving for psi, Initial residual = 0.00788121, Final residual = 1.84398e-08, No Iterations 2
ExecutionTime = 0.12 s  ClockTime = 0 s

Time = 1.525

nonePBiCG:  Solving for psi, Initial residual = 0.00788366, Final residual = 1.82091e-08, No Iterations 2
ExecutionTime = 0.12 s  ClockTime = 0 s

Time = 1.53

nonePBiCG:  Solving for psi, Initial residual = 0.00788612, Final residual = 1.79819e-08, No Iterations 2
ExecutionTime = 0.12 s  ClockTime = 0 s

Time = 1.535

nonePBiCG:  Solving for psi, Initial residual = 0.00788859, Final residual = 1.7758e-08, No Iterations 2
ExecutionTime = 0.12 s  ClockTime = 0 s

Time = 1.54

nonePBiCG:  Solving for psi, Initial residual = 0.00789107, Final residual = 1.75375e-08, No Iterations 2
ExecutionTime = 0.12 s  ClockTime = 0 s

Time = 1.545

nonePBiCG:  Solving for psi, Initial residual = 0.00789355, Final residual = 1.73203e-08, No Iterations 2
ExecutionTime = 0.12 s  ClockTime = 0 s

Time = 1.55

nonePBiCG:  Solving for psi, Initial residual = 0.00789603, Final residual = 1.71063e-08, No Iterations 2
ExecutionTime = 0.12 s  ClockTime = 0 s

Time = 1.555

nonePBiCG:  Solving for psi, Initial residual = 0.00789853, Final residual = 1.68954e-08, No Iterations 2
ExecutionTime = 0.12 s  ClockTime = 0 s

Time = 1.56

nonePBiCG:  Solving for psi, Initial residual = 0.00790103, Final residual = 1.66877e-08, No Iterations 2
ExecutionTime = 0.12 s  ClockTime = 0 s

Time = 1.565

nonePBiCG:  Solving for psi, Initial residual = 0.00790353, Final residual = 1.64831e-08, No Iterations 2
ExecutionTime = 0.12 s  ClockTime = 0 s

Time = 1.57

nonePBiCG:  Solving for psi, Initial residual = 0.00790604, Final residual = 1.62815e-08, No Iterations 2
ExecutionTime = 0.12 s  ClockTime = 0 s

Time = 1.575

nonePBiCG:  Solving for psi, Initial residual = 0.00790855, Final residual = 1.60829e-08, No Iterations 2
ExecutionTime = 0.12 s  ClockTime = 0 s

Time = 1.58

nonePBiCG:  Solving for psi, Initial residual = 0.00791107, Final residual = 1.58872e-08, No Iterations 2
ExecutionTime = 0.12 s  ClockTime = 0 s

Time = 1.585

nonePBiCG:  Solving for psi, Initial residual = 0.0079136, Final residual = 1.56943e-08, No Iterations 2
ExecutionTime = 0.12 s  ClockTime = 0 s

Time = 1.59

nonePBiCG:  Solving for psi, Initial residual = 0.00791613, Final residual = 1.55043e-08, No Iterations 2
ExecutionTime = 0.12 s  ClockTime = 0 s

Time = 1.595

nonePBiCG:  Solving for psi, Initial residual = 0.00791866, Final residual = 1.5317e-08, No Iterations 2
ExecutionTime = 0.12 s  ClockTime = 0 s

Time = 1.6

nonePBiCG:  Solving for psi, Initial residual = 0.0079212, Final residual = 1.51325e-08, No Iterations 2
ExecutionTime = 0.12 s  ClockTime = 0 s

Time = 1.605

nonePBiCG:  Solving for psi, Initial residual = 0.00792374, Final residual = 1.49507e-08, No Iterations 2
ExecutionTime = 0.12 s  ClockTime = 0 s

Time = 1.61

nonePBiCG:  Solving for psi, Initial residual = 0.00792629, Final residual = 1.47715e-08, No Iterations 2
ExecutionTime = 0.12 s  ClockTime = 0 s

Time = 1.615

nonePBiCG:  Solving for psi, Initial residual = 0.00792884, Final residual = 1.45949e-08, No Iterations 2
ExecutionTime = 0.12 s  ClockTime = 0 s

Time = 1.62

nonePBiCG:  Solving for psi, Initial residual = 0.0079314, Final residual = 1.44209e-08, No Iterations 2
ExecutionTime = 0.12 s  ClockTime = 0 s

Time = 1.625

nonePBiCG:  Solving for psi, Initial residual = 0.00793395, Final residual = 1.42494e-08, No Iterations 2
ExecutionTime = 0.12 s  ClockTime = 0 s

Time = 1.63

nonePBiCG:  Solving for psi, Initial residual = 0.00793651, Final residual = 1.40803e-08, No Iterations 2
ExecutionTime = 0.12 s  ClockTime = 0 s

Time = 1.635

nonePBiCG:  Solving for psi, Initial residual = 0.00793908, Final residual = 1.39137e-08, No Iterations 2
ExecutionTime = 0.12 s  ClockTime = 0 s

Time = 1.64

nonePBiCG:  Solving for psi, Initial residual = 0.00794165, Final residual = 1.37495e-08, No Iterations 2
ExecutionTime = 0.12 s  ClockTime = 0 s

Time = 1.645

nonePBiCG:  Solving for psi, Initial residual = 0.00794422, Final residual = 1.35876e-08, No Iterations 2
ExecutionTime = 0.12 s  ClockTime = 0 s

Time = 1.65

nonePBiCG:  Solving for psi, Initial residual = 0.00794679, Final residual = 1.3428e-08, No Iterations 2
ExecutionTime = 0.12 s  ClockTime = 0 s

Time = 1.655

nonePBiCG:  Solving for psi, Initial residual = 0.00794937, Final residual = 1.32707e-08, No Iterations 2
ExecutionTime = 0.13 s  ClockTime = 0 s

Time = 1.66

nonePBiCG:  Solving for psi, Initial residual = 0.00795195, Final residual = 1.31157e-08, No Iterations 2
ExecutionTime = 0.13 s  ClockTime = 0 s

Time = 1.665

nonePBiCG:  Solving for psi, Initial residual = 0.00795453, Final residual = 1.29628e-08, No Iterations 2
ExecutionTime = 0.13 s  ClockTime = 0 s

Time = 1.67

nonePBiCG:  Solving for psi, Initial residual = 0.00795711, Final residual = 1.28121e-08, No Iterations 2
ExecutionTime = 0.13 s  ClockTime = 0 s

Time = 1.675

nonePBiCG:  Solving for psi, Initial residual = 0.0079597, Final residual = 1.26636e-08, No Iterations 2
ExecutionTime = 0.13 s  ClockTime = 0 s

Time = 1.68

nonePBiCG:  Solving for psi, Initial residual = 0.00796229, Final residual = 1.25171e-08, No Iterations 2
ExecutionTime = 0.13 s  ClockTime = 0 s

Time = 1.685

nonePBiCG:  Solving for psi, Initial residual = 0.00796488, Final residual = 1.23727e-08, No Iterations 2
ExecutionTime = 0.13 s  ClockTime = 0 s

Time = 1.69

nonePBiCG:  Solving for psi, Initial residual = 0.00796747, Final residual = 1.22304e-08, No Iterations 2
ExecutionTime = 0.13 s  ClockTime = 0 s

Time = 1.695

nonePBiCG:  Solving for psi, Initial residual = 0.00797007, Final residual = 1.209e-08, No Iterations 2
ExecutionTime = 0.13 s  ClockTime = 0 s

Time = 1.7

nonePBiCG:  Solving for psi, Initial residual = 0.00797266, Final residual = 1.19516e-08, No Iterations 2
ExecutionTime = 0.13 s  ClockTime = 0 s

Time = 1.705

nonePBiCG:  Solving for psi, Initial residual = 0.00797526, Final residual = 1.18151e-08, No Iterations 2
ExecutionTime = 0.13 s  ClockTime = 0 s

Time = 1.71

nonePBiCG:  Solving for psi, Initial residual = 0.00797786, Final residual = 1.16805e-08, No Iterations 2
ExecutionTime = 0.13 s  ClockTime = 0 s

Time = 1.715

nonePBiCG:  Solving for psi, Initial residual = 0.00798046, Final residual = 1.15478e-08, No Iterations 2
ExecutionTime = 0.13 s  ClockTime = 0 s

Time = 1.72

nonePBiCG:  Solving for psi, Initial residual = 0.00798306, Final residual = 1.14169e-08, No Iterations 2
ExecutionTime = 0.13 s  ClockTime = 0 s

Time = 1.725

nonePBiCG:  Solving for psi, Initial residual = 0.00798566, Final residual = 1.12878e-08, No Iterations 2
ExecutionTime = 0.13 s  ClockTime = 0 s

Time = 1.73

nonePBiCG:  Solving for psi, Initial residual = 0.00798827, Final residual = 1.11605e-08, No Iterations 2
ExecutionTime = 0.13 s  ClockTime = 0 s

Time = 1.735

nonePBiCG:  Solving for psi, Initial residual = 0.00799087, Final residual = 1.1035e-08, No Iterations 2
ExecutionTime = 0.13 s  ClockTime = 0 s

Time = 1.74

nonePBiCG:  Solving for psi, Initial residual = 0.00799348, Final residual = 1.09112e-08, No Iterations 2
ExecutionTime = 0.13 s  ClockTime = 0 s

Time = 1.745

nonePBiCG:  Solving for psi, Initial residual = 0.00799609, Final residual = 1.07891e-08, No Iterations 2
ExecutionTime = 0.13 s  ClockTime = 0 s

Time = 1.75

nonePBiCG:  Solving for psi, Initial residual = 0.00799869, Final residual = 1.06687e-08, No Iterations 2
ExecutionTime = 0.13 s  ClockTime = 0 s

Time = 1.755

nonePBiCG:  Solving for psi, Initial residual = 0.0080013, Final residual = 1.05499e-08, No Iterations 2
ExecutionTime = 0.13 s  ClockTime = 0 s

Time = 1.76

nonePBiCG:  Solving for psi, Initial residual = 0.00800391, Final residual = 1.04327e-08, No Iterations 2
ExecutionTime = 0.13 s  ClockTime = 0 s

Time = 1.765

nonePBiCG:  Solving for psi, Initial residual = 0.00800652, Final residual = 1.03171e-08, No Iterations 2
ExecutionTime = 0.13 s  ClockTime = 0 s

Time = 1.77

nonePBiCG:  Solving for psi, Initial residual = 0.00800913, Final residual = 1.02031e-08, No Iterations 2
ExecutionTime = 0.13 s  ClockTime = 0 s

Time = 1.775

nonePBiCG:  Solving for psi, Initial residual = 0.00801174, Final residual = 1.00906e-08, No Iterations 2
ExecutionTime = 0.13 s  ClockTime = 0 s

Time = 1.78

nonePBiCG:  Solving for psi, Initial residual = 0.00801435, Final residual = 9.97965e-09, No Iterations 2
ExecutionTime = 0.13 s  ClockTime = 0 s

Time = 1.785

nonePBiCG:  Solving for psi, Initial residual = 0.00801695, Final residual = 9.87019e-09, No Iterations 2
ExecutionTime = 0.13 s  ClockTime = 0 s

Time = 1.79

nonePBiCG:  Solving for psi, Initial residual = 0.00801956, Final residual = 9.7622e-09, No Iterations 2
ExecutionTime = 0.13 s  ClockTime = 0 s

Time = 1.795

nonePBiCG:  Solving for psi, Initial residual = 0.00802217, Final residual = 9.65566e-09, No Iterations 2
ExecutionTime = 0.13 s  ClockTime = 0 s

Time = 1.8

nonePBiCG:  Solving for psi, Initial residual = 0.00802478, Final residual = 9.55054e-09, No Iterations 2
ExecutionTime = 0.13 s  ClockTime = 0 s

Time = 1.805

nonePBiCG:  Solving for psi, Initial residual = 0.00802739, Final residual = 9.44683e-09, No Iterations 2
ExecutionTime = 0.13 s  ClockTime = 0 s

Time = 1.81

nonePBiCG:  Solving for psi, Initial residual = 0.00803, Final residual = 9.34449e-09, No Iterations 2
ExecutionTime = 0.13 s  ClockTime = 0 s

Time = 1.815

nonePBiCG:  Solving for psi, Initial residual = 0.00803261, Final residual = 9.24352e-09, No Iterations 2
ExecutionTime = 0.13 s  ClockTime = 0 s

Time = 1.82

nonePBiCG:  Solving for psi, Initial residual = 0.00803521, Final residual = 9.14389e-09, No Iterations 2
ExecutionTime = 0.13 s  ClockTime = 0 s

Time = 1.825

nonePBiCG:  Solving for psi, Initial residual = 0.00803782, Final residual = 9.04557e-09, No Iterations 2
ExecutionTime = 0.13 s  ClockTime = 0 s

Time = 1.83

nonePBiCG:  Solving for psi, Initial residual = 0.00804043, Final residual = 8.94856e-09, No Iterations 2
ExecutionTime = 0.13 s  ClockTime = 0 s

Time = 1.835

nonePBiCG:  Solving for psi, Initial residual = 0.00804303, Final residual = 8.85282e-09, No Iterations 2
ExecutionTime = 0.13 s  ClockTime = 0 s

Time = 1.84

nonePBiCG:  Solving for psi, Initial residual = 0.00804564, Final residual = 8.75834e-09, No Iterations 2
ExecutionTime = 0.13 s  ClockTime = 0 s

Time = 1.845

nonePBiCG:  Solving for psi, Initial residual = 0.00804824, Final residual = 8.66509e-09, No Iterations 2
ExecutionTime = 0.13 s  ClockTime = 0 s

Time = 1.85

nonePBiCG:  Solving for psi, Initial residual = 0.00805085, Final residual = 8.57307e-09, No Iterations 2
ExecutionTime = 0.13 s  ClockTime = 0 s

Time = 1.855

nonePBiCG:  Solving for psi, Initial residual = 0.00805345, Final residual = 8.48225e-09, No Iterations 2
ExecutionTime = 0.13 s  ClockTime = 0 s

Time = 1.86

nonePBiCG:  Solving for psi, Initial residual = 0.00805605, Final residual = 8.39261e-09, No Iterations 2
ExecutionTime = 0.13 s  ClockTime = 0 s

Time = 1.865

nonePBiCG:  Solving for psi, Initial residual = 0.00805865, Final residual = 8.30414e-09, No Iterations 2
ExecutionTime = 0.13 s  ClockTime = 0 s

Time = 1.87

nonePBiCG:  Solving for psi, Initial residual = 0.00806125, Final residual = 8.21682e-09, No Iterations 2
ExecutionTime = 0.13 s  ClockTime = 0 s

Time = 1.875

nonePBiCG:  Solving for psi, Initial residual = 0.00806385, Final residual = 8.13062e-09, No Iterations 2
ExecutionTime = 0.13 s  ClockTime = 0 s

Time = 1.88

nonePBiCG:  Solving for psi, Initial residual = 0.00806644, Final residual = 8.04554e-09, No Iterations 2
ExecutionTime = 0.13 s  ClockTime = 0 s

Time = 1.885

nonePBiCG:  Solving for psi, Initial residual = 0.00806904, Final residual = 7.96155e-09, No Iterations 2
ExecutionTime = 0.13 s  ClockTime = 0 s

Time = 1.89

nonePBiCG:  Solving for psi, Initial residual = 0.00807163, Final residual = 7.87865e-09, No Iterations 2
ExecutionTime = 0.13 s  ClockTime = 0 s

Time = 1.895

nonePBiCG:  Solving for psi, Initial residual = 0.00807423, Final residual = 7.7968e-09, No Iterations 2
ExecutionTime = 0.13 s  ClockTime = 0 s

Time = 1.9

nonePBiCG:  Solving for psi, Initial residual = 0.00807682, Final residual = 7.71601e-09, No Iterations 2
ExecutionTime = 0.13 s  ClockTime = 0 s

Time = 1.905

nonePBiCG:  Solving for psi, Initial residual = 0.00807941, Final residual = 7.63624e-09, No Iterations 2
ExecutionTime = 0.13 s  ClockTime = 0 s

Time = 1.91

nonePBiCG:  Solving for psi, Initial residual = 0.008082, Final residual = 7.5575e-09, No Iterations 2
ExecutionTime = 0.13 s  ClockTime = 0 s

Time = 1.915

nonePBiCG:  Solving for psi, Initial residual = 0.00808458, Final residual = 7.47975e-09, No Iterations 2
ExecutionTime = 0.13 s  ClockTime = 0 s

Time = 1.92

nonePBiCG:  Solving for psi, Initial residual = 0.00808717, Final residual = 7.40299e-09, No Iterations 2
ExecutionTime = 0.13 s  ClockTime = 0 s

Time = 1.925

nonePBiCG:  Solving for psi, Initial residual = 0.00808975, Final residual = 7.3272e-09, No Iterations 2
ExecutionTime = 0.13 s  ClockTime = 0 s

Time = 1.93

nonePBiCG:  Solving for psi, Initial residual = 0.00809233, Final residual = 7.25236e-09, No Iterations 2
ExecutionTime = 0.13 s  ClockTime = 0 s

Time = 1.935

nonePBiCG:  Solving for psi, Initial residual = 0.00809491, Final residual = 7.17847e-09, No Iterations 2
ExecutionTime = 0.13 s  ClockTime = 0 s

Time = 1.94

nonePBiCG:  Solving for psi, Initial residual = 0.00809749, Final residual = 7.10551e-09, No Iterations 2
ExecutionTime = 0.13 s  ClockTime = 0 s

Time = 1.945

nonePBiCG:  Solving for psi, Initial residual = 0.00810007, Final residual = 7.03347e-09, No Iterations 2
ExecutionTime = 0.13 s  ClockTime = 0 s

Time = 1.95

nonePBiCG:  Solving for psi, Initial residual = 0.00810264, Final residual = 6.96232e-09, No Iterations 2
ExecutionTime = 0.13 s  ClockTime = 0 s

Time = 1.955

nonePBiCG:  Solving for psi, Initial residual = 0.00810521, Final residual = 6.89207e-09, No Iterations 2
ExecutionTime = 0.13 s  ClockTime = 0 s

Time = 1.96

nonePBiCG:  Solving for psi, Initial residual = 0.00810778, Final residual = 6.82268e-09, No Iterations 2
ExecutionTime = 0.13 s  ClockTime = 0 s

Time = 1.965

nonePBiCG:  Solving for psi, Initial residual = 0.00811035, Final residual = 6.75417e-09, No Iterations 2
ExecutionTime = 0.13 s  ClockTime = 0 s

Time = 1.97

nonePBiCG:  Solving for psi, Initial residual = 0.00811292, Final residual = 6.6865e-09, No Iterations 2
ExecutionTime = 0.14 s  ClockTime = 0 s

Time = 1.975

nonePBiCG:  Solving for psi, Initial residual = 0.00811548, Final residual = 6.61967e-09, No Iterations 2
ExecutionTime = 0.14 s  ClockTime = 0 s

Time = 1.98

nonePBiCG:  Solving for psi, Initial residual = 0.00811804, Final residual = 6.55366e-09, No Iterations 2
ExecutionTime = 0.14 s  ClockTime = 0 s

Time = 1.985

nonePBiCG:  Solving for psi, Initial residual = 0.0081206, Final residual = 6.48847e-09, No Iterations 2
ExecutionTime = 0.14 s  ClockTime = 0 s

Time = 1.99

nonePBiCG:  Solving for psi, Initial residual = 0.00812316, Final residual = 6.42408e-09, No Iterations 2
ExecutionTime = 0.14 s  ClockTime = 0 s

Time = 1.995

nonePBiCG:  Solving for psi, Initial residual = 0.00812571, Final residual = 6.36048e-09, No Iterations 2
ExecutionTime = 0.14 s  ClockTime = 0 s

Time = 2

nonePBiCG:  Solving for psi, Initial residual = 0.00812826, Final residual = 6.29765e-09, No Iterations 2
ExecutionTime = 0.14 s  ClockTime = 0 s

Time = 2.005

nonePBiCG:  Solving for psi, Initial residual = 0.00813081, Final residual = 6.2356e-09, No Iterations 2
ExecutionTime = 0.15 s  ClockTime = 0 s

Time = 2.01

nonePBiCG:  Solving for psi, Initial residual = 0.00813336, Final residual = 6.1743e-09, No Iterations 2
ExecutionTime = 0.15 s  ClockTime = 0 s

Time = 2.015

nonePBiCG:  Solving for psi, Initial residual = 0.00813591, Final residual = 6.11375e-09, No Iterations 2
ExecutionTime = 0.15 s  ClockTime = 0 s

Time = 2.02

nonePBiCG:  Solving for psi, Initial residual = 0.00813845, Final residual = 6.05393e-09, No Iterations 2
ExecutionTime = 0.15 s  ClockTime = 0 s

Time = 2.025

nonePBiCG:  Solving for psi, Initial residual = 0.00814099, Final residual = 5.99483e-09, No Iterations 2
ExecutionTime = 0.15 s  ClockTime = 0 s

Time = 2.03

nonePBiCG:  Solving for psi, Initial residual = 0.00814353, Final residual = 5.93645e-09, No Iterations 2
ExecutionTime = 0.15 s  ClockTime = 0 s

Time = 2.035

nonePBiCG:  Solving for psi, Initial residual = 0.00814606, Final residual = 5.87877e-09, No Iterations 2
ExecutionTime = 0.15 s  ClockTime = 0 s

Time = 2.04

nonePBiCG:  Solving for psi, Initial residual = 0.00814859, Final residual = 5.82179e-09, No Iterations 2
ExecutionTime = 0.15 s  ClockTime = 0 s

Time = 2.045

nonePBiCG:  Solving for psi, Initial residual = 0.00815112, Final residual = 5.76549e-09, No Iterations 2
ExecutionTime = 0.15 s  ClockTime = 0 s

Time = 2.05

nonePBiCG:  Solving for psi, Initial residual = 0.00815365, Final residual = 5.70986e-09, No Iterations 2
ExecutionTime = 0.15 s  ClockTime = 0 s

Time = 2.055

nonePBiCG:  Solving for psi, Initial residual = 0.00815618, Final residual = 5.6549e-09, No Iterations 2
ExecutionTime = 0.15 s  ClockTime = 0 s

Time = 2.06

nonePBiCG:  Solving for psi, Initial residual = 0.0081587, Final residual = 5.6006e-09, No Iterations 2
ExecutionTime = 0.15 s  ClockTime = 0 s

Time = 2.065

nonePBiCG:  Solving for psi, Initial residual = 0.00816122, Final residual = 5.54694e-09, No Iterations 2
ExecutionTime = 0.15 s  ClockTime = 0 s

Time = 2.07

nonePBiCG:  Solving for psi, Initial residual = 0.00816373, Final residual = 5.49392e-09, No Iterations 2
ExecutionTime = 0.15 s  ClockTime = 0 s

Time = 2.075

nonePBiCG:  Solving for psi, Initial residual = 0.00816625, Final residual = 5.44152e-09, No Iterations 2
ExecutionTime = 0.15 s  ClockTime = 0 s

Time = 2.08

nonePBiCG:  Solving for psi, Initial residual = 0.00816876, Final residual = 5.38974e-09, No Iterations 2
ExecutionTime = 0.15 s  ClockTime = 0 s

Time = 2.085

nonePBiCG:  Solving for psi, Initial residual = 0.00817127, Final residual = 5.33858e-09, No Iterations 2
ExecutionTime = 0.15 s  ClockTime = 0 s

Time = 2.09

nonePBiCG:  Solving for psi, Initial residual = 0.00817377, Final residual = 5.28802e-09, No Iterations 2
ExecutionTime = 0.15 s  ClockTime = 0 s

Time = 2.095

nonePBiCG:  Solving for psi, Initial residual = 0.00817627, Final residual = 5.23805e-09, No Iterations 2
ExecutionTime = 0.15 s  ClockTime = 0 s

Time = 2.1

nonePBiCG:  Solving for psi, Initial residual = 0.00817877, Final residual = 5.18866e-09, No Iterations 2
ExecutionTime = 0.15 s  ClockTime = 0 s

Time = 2.105

nonePBiCG:  Solving for psi, Initial residual = 0.00818127, Final residual = 5.13986e-09, No Iterations 2
ExecutionTime = 0.15 s  ClockTime = 0 s

Time = 2.11

nonePBiCG:  Solving for psi, Initial residual = 0.00818376, Final residual = 5.09162e-09, No Iterations 2
ExecutionTime = 0.15 s  ClockTime = 0 s

Time = 2.115

nonePBiCG:  Solving for psi, Initial residual = 0.00818625, Final residual = 5.04394e-09, No Iterations 2
ExecutionTime = 0.15 s  ClockTime = 0 s

Time = 2.12

nonePBiCG:  Solving for psi, Initial residual = 0.00818874, Final residual = 4.99682e-09, No Iterations 2
ExecutionTime = 0.15 s  ClockTime = 0 s

Time = 2.125

nonePBiCG:  Solving for psi, Initial residual = 0.00819122, Final residual = 4.95025e-09, No Iterations 2
ExecutionTime = 0.15 s  ClockTime = 0 s

Time = 2.13

nonePBiCG:  Solving for psi, Initial residual = 0.00819371, Final residual = 4.90421e-09, No Iterations 2
ExecutionTime = 0.15 s  ClockTime = 0 s

Time = 2.135

nonePBiCG:  Solving for psi, Initial residual = 0.00819618, Final residual = 4.8587e-09, No Iterations 2
ExecutionTime = 0.15 s  ClockTime = 0 s

Time = 2.14

nonePBiCG:  Solving for psi, Initial residual = 0.00819866, Final residual = 4.81372e-09, No Iterations 2
ExecutionTime = 0.15 s  ClockTime = 0 s

Time = 2.145

nonePBiCG:  Solving for psi, Initial residual = 0.00820113, Final residual = 4.76926e-09, No Iterations 2
ExecutionTime = 0.15 s  ClockTime = 0 s

Time = 2.15

nonePBiCG:  Solving for psi, Initial residual = 0.0082036, Final residual = 4.7253e-09, No Iterations 2
ExecutionTime = 0.15 s  ClockTime = 0 s

Time = 2.155

nonePBiCG:  Solving for psi, Initial residual = 0.00820607, Final residual = 4.68185e-09, No Iterations 2
ExecutionTime = 0.15 s  ClockTime = 0 s

Time = 2.16

nonePBiCG:  Solving for psi, Initial residual = 0.00820853, Final residual = 4.63889e-09, No Iterations 2
ExecutionTime = 0.15 s  ClockTime = 0 s

Time = 2.165

nonePBiCG:  Solving for psi, Initial residual = 0.00821099, Final residual = 4.59643e-09, No Iterations 2
ExecutionTime = 0.15 s  ClockTime = 0 s

Time = 2.17

nonePBiCG:  Solving for psi, Initial residual = 0.00821344, Final residual = 4.55444e-09, No Iterations 2
ExecutionTime = 0.15 s  ClockTime = 0 s

Time = 2.175

nonePBiCG:  Solving for psi, Initial residual = 0.0082159, Final residual = 4.51294e-09, No Iterations 2
ExecutionTime = 0.15 s  ClockTime = 0 s

Time = 2.18

nonePBiCG:  Solving for psi, Initial residual = 0.00821835, Final residual = 4.4719e-09, No Iterations 2
ExecutionTime = 0.15 s  ClockTime = 0 s

Time = 2.185

nonePBiCG:  Solving for psi, Initial residual = 0.00822079, Final residual = 4.43132e-09, No Iterations 2
ExecutionTime = 0.15 s  ClockTime = 0 s

Time = 2.19

nonePBiCG:  Solving for psi, Initial residual = 0.00822324, Final residual = 4.39121e-09, No Iterations 2
ExecutionTime = 0.15 s  ClockTime = 0 s

Time = 2.195

nonePBiCG:  Solving for psi, Initial residual = 0.00822568, Final residual = 4.35154e-09, No Iterations 2
ExecutionTime = 0.15 s  ClockTime = 0 s

Time = 2.2

nonePBiCG:  Solving for psi, Initial residual = 0.00822811, Final residual = 4.31232e-09, No Iterations 2
ExecutionTime = 0.15 s  ClockTime = 0 s

Time = 2.205

nonePBiCG:  Solving for psi, Initial residual = 0.00823055, Final residual = 4.27354e-09, No Iterations 2
ExecutionTime = 0.15 s  ClockTime = 0 s

Time = 2.21

nonePBiCG:  Solving for psi, Initial residual = 0.00823298, Final residual = 4.23519e-09, No Iterations 2
ExecutionTime = 0.15 s  ClockTime = 0 s

Time = 2.215

nonePBiCG:  Solving for psi, Initial residual = 0.0082354, Final residual = 4.19727e-09, No Iterations 2
ExecutionTime = 0.15 s  ClockTime = 0 s

Time = 2.22

nonePBiCG:  Solving for psi, Initial residual = 0.00823783, Final residual = 4.15977e-09, No Iterations 2
ExecutionTime = 0.15 s  ClockTime = 0 s

Time = 2.225

nonePBiCG:  Solving for psi, Initial residual = 0.00824025, Final residual = 4.12269e-09, No Iterations 2
ExecutionTime = 0.15 s  ClockTime = 0 s

Time = 2.23

nonePBiCG:  Solving for psi, Initial residual = 0.00824266, Final residual = 4.08602e-09, No Iterations 2
ExecutionTime = 0.15 s  ClockTime = 0 s

Time = 2.235

nonePBiCG:  Solving for psi, Initial residual = 0.00824508, Final residual = 4.04976e-09, No Iterations 2
ExecutionTime = 0.15 s  ClockTime = 0 s

Time = 2.24

nonePBiCG:  Solving for psi, Initial residual = 0.00824749, Final residual = 4.01389e-09, No Iterations 2
ExecutionTime = 0.15 s  ClockTime = 0 s

Time = 2.245

nonePBiCG:  Solving for psi, Initial residual = 0.00824989, Final residual = 3.97842e-09, No Iterations 2
ExecutionTime = 0.15 s  ClockTime = 0 s

Time = 2.25

nonePBiCG:  Solving for psi, Initial residual = 0.0082523, Final residual = 3.94334e-09, No Iterations 2
ExecutionTime = 0.15 s  ClockTime = 0 s

Time = 2.255

nonePBiCG:  Solving for psi, Initial residual = 0.0082547, Final residual = 3.90865e-09, No Iterations 2
ExecutionTime = 0.15 s  ClockTime = 0 s

Time = 2.26

nonePBiCG:  Solving for psi, Initial residual = 0.00825709, Final residual = 3.87433e-09, No Iterations 2
ExecutionTime = 0.15 s  ClockTime = 0 s

Time = 2.265

nonePBiCG:  Solving for psi, Initial residual = 0.00825949, Final residual = 3.84039e-09, No Iterations 2
ExecutionTime = 0.15 s  ClockTime = 0 s

Time = 2.27

nonePBiCG:  Solving for psi, Initial residual = 0.00826188, Final residual = 3.80682e-09, No Iterations 2
ExecutionTime = 0.16 s  ClockTime = 0 s

Time = 2.275

nonePBiCG:  Solving for psi, Initial residual = 0.00826426, Final residual = 3.77361e-09, No Iterations 2
ExecutionTime = 0.16 s  ClockTime = 0 s

Time = 2.28

nonePBiCG:  Solving for psi, Initial residual = 0.00826665, Final residual = 3.74077e-09, No Iterations 2
ExecutionTime = 0.16 s  ClockTime = 0 s

Time = 2.285

nonePBiCG:  Solving for psi, Initial residual = 0.00826902, Final residual = 3.70828e-09, No Iterations 2
ExecutionTime = 0.16 s  ClockTime = 0 s

Time = 2.29

nonePBiCG:  Solving for psi, Initial residual = 0.0082714, Final residual = 3.67614e-09, No Iterations 2
ExecutionTime = 0.16 s  ClockTime = 0 s

Time = 2.295

nonePBiCG:  Solving for psi, Initial residual = 0.00827377, Final residual = 3.64435e-09, No Iterations 2
ExecutionTime = 0.16 s  ClockTime = 0 s

Time = 2.3

nonePBiCG:  Solving for psi, Initial residual = 0.00827614, Final residual = 3.6129e-09, No Iterations 2
ExecutionTime = 0.16 s  ClockTime = 0 s

Time = 2.305

nonePBiCG:  Solving for psi, Initial residual = 0.00827851, Final residual = 3.58179e-09, No Iterations 2
ExecutionTime = 0.16 s  ClockTime = 0 s

Time = 2.31

nonePBiCG:  Solving for psi, Initial residual = 0.00828087, Final residual = 3.55101e-09, No Iterations 2
ExecutionTime = 0.16 s  ClockTime = 0 s

Time = 2.315

nonePBiCG:  Solving for psi, Initial residual = 0.00828322, Final residual = 3.52056e-09, No Iterations 2
ExecutionTime = 0.16 s  ClockTime = 0 s

Time = 2.32

nonePBiCG:  Solving for psi, Initial residual = 0.00828558, Final residual = 3.49044e-09, No Iterations 2
ExecutionTime = 0.16 s  ClockTime = 0 s

Time = 2.325

nonePBiCG:  Solving for psi, Initial residual = 0.00828793, Final residual = 3.46063e-09, No Iterations 2
ExecutionTime = 0.16 s  ClockTime = 0 s

Time = 2.33

nonePBiCG:  Solving for psi, Initial residual = 0.00829028, Final residual = 3.43115e-09, No Iterations 2
ExecutionTime = 0.16 s  ClockTime = 0 s

Time = 2.335

nonePBiCG:  Solving for psi, Initial residual = 0.00829262, Final residual = 3.40197e-09, No Iterations 2
ExecutionTime = 0.16 s  ClockTime = 0 s

Time = 2.34

nonePBiCG:  Solving for psi, Initial residual = 0.00829496, Final residual = 3.37311e-09, No Iterations 2
ExecutionTime = 0.16 s  ClockTime = 0 s

Time = 2.345

nonePBiCG:  Solving for psi, Initial residual = 0.0082973, Final residual = 3.34455e-09, No Iterations 2
ExecutionTime = 0.16 s  ClockTime = 0 s

Time = 2.35

nonePBiCG:  Solving for psi, Initial residual = 0.00829963, Final residual = 3.31629e-09, No Iterations 2
ExecutionTime = 0.16 s  ClockTime = 0 s

Time = 2.355

nonePBiCG:  Solving for psi, Initial residual = 0.00830196, Final residual = 3.28833e-09, No Iterations 2
ExecutionTime = 0.16 s  ClockTime = 0 s

Time = 2.36

nonePBiCG:  Solving for psi, Initial residual = 0.00830429, Final residual = 3.26066e-09, No Iterations 2
ExecutionTime = 0.16 s  ClockTime = 0 s

Time = 2.365

nonePBiCG:  Solving for psi, Initial residual = 0.00830661, Final residual = 3.23329e-09, No Iterations 2
ExecutionTime = 0.16 s  ClockTime = 0 s

Time = 2.37

nonePBiCG:  Solving for psi, Initial residual = 0.00830893, Final residual = 3.20619e-09, No Iterations 2
ExecutionTime = 0.16 s  ClockTime = 0 s

Time = 2.375

nonePBiCG:  Solving for psi, Initial residual = 0.00831124, Final residual = 3.17939e-09, No Iterations 2
ExecutionTime = 0.16 s  ClockTime = 0 s

Time = 2.38

nonePBiCG:  Solving for psi, Initial residual = 0.00831355, Final residual = 3.15286e-09, No Iterations 2
ExecutionTime = 0.16 s  ClockTime = 0 s

Time = 2.385

nonePBiCG:  Solving for psi, Initial residual = 0.00831586, Final residual = 3.1266e-09, No Iterations 2
ExecutionTime = 0.16 s  ClockTime = 0 s

Time = 2.39

nonePBiCG:  Solving for psi, Initial residual = 0.00831817, Final residual = 3.10062e-09, No Iterations 2
ExecutionTime = 0.16 s  ClockTime = 0 s

Time = 2.395

nonePBiCG:  Solving for psi, Initial residual = 0.00832047, Final residual = 3.07491e-09, No Iterations 2
ExecutionTime = 0.16 s  ClockTime = 0 s

Time = 2.4

nonePBiCG:  Solving for psi, Initial residual = 0.00832276, Final residual = 3.04947e-09, No Iterations 2
ExecutionTime = 0.16 s  ClockTime = 0 s

Time = 2.405

nonePBiCG:  Solving for psi, Initial residual = 0.00832506, Final residual = 3.02428e-09, No Iterations 2
ExecutionTime = 0.16 s  ClockTime = 0 s

Time = 2.41

nonePBiCG:  Solving for psi, Initial residual = 0.00832735, Final residual = 2.99936e-09, No Iterations 2
ExecutionTime = 0.16 s  ClockTime = 0 s

Time = 2.415

nonePBiCG:  Solving for psi, Initial residual = 0.00832963, Final residual = 2.97469e-09, No Iterations 2
ExecutionTime = 0.16 s  ClockTime = 0 s

Time = 2.42

nonePBiCG:  Solving for psi, Initial residual = 0.00833191, Final residual = 2.95028e-09, No Iterations 2
ExecutionTime = 0.16 s  ClockTime = 0 s

Time = 2.425

nonePBiCG:  Solving for psi, Initial residual = 0.00833419, Final residual = 2.92611e-09, No Iterations 2
ExecutionTime = 0.16 s  ClockTime = 0 s

Time = 2.43

nonePBiCG:  Solving for psi, Initial residual = 0.00833647, Final residual = 2.90219e-09, No Iterations 2
ExecutionTime = 0.16 s  ClockTime = 0 s

Time = 2.435

nonePBiCG:  Solving for psi, Initial residual = 0.00833874, Final residual = 2.87852e-09, No Iterations 2
ExecutionTime = 0.16 s  ClockTime = 0 s

Time = 2.44

nonePBiCG:  Solving for psi, Initial residual = 0.00834101, Final residual = 2.85508e-09, No Iterations 2
ExecutionTime = 0.16 s  ClockTime = 0 s

Time = 2.445

nonePBiCG:  Solving for psi, Initial residual = 0.00834327, Final residual = 2.83189e-09, No Iterations 2
ExecutionTime = 0.16 s  ClockTime = 0 s

Time = 2.45

nonePBiCG:  Solving for psi, Initial residual = 0.00834553, Final residual = 2.80893e-09, No Iterations 2
ExecutionTime = 0.16 s  ClockTime = 0 s

Time = 2.455

nonePBiCG:  Solving for psi, Initial residual = 0.00834779, Final residual = 2.7862e-09, No Iterations 2
ExecutionTime = 0.16 s  ClockTime = 0 s

Time = 2.46

nonePBiCG:  Solving for psi, Initial residual = 0.00835004, Final residual = 2.7637e-09, No Iterations 2
ExecutionTime = 0.16 s  ClockTime = 0 s

Time = 2.465

nonePBiCG:  Solving for psi, Initial residual = 0.00835229, Final residual = 2.74142e-09, No Iterations 2
[...]
ExecutionTime = 0.52 s  ClockTime = 2 s

Time = 9.3

nonePBiCG:  Solving for psi, Initial residual = 0, Final residual = 0, No Iterations 0
ExecutionTime = 0.52 s  ClockTime = 2 s

Time = 9.305

nonePBiCG:  Solving for psi, Initial residual = 0, Final residual = 0, No Iterations 0
ExecutionTime = 0.52 s  ClockTime = 2 s

Time = 9.31

nonePBiCG:  Solving for psi, Initial residual = 0, Final residual = 0, No Iterations 0
ExecutionTime = 0.52 s  ClockTime = 2 s

Time = 9.315

nonePBiCG:  Solving for psi, Initial residual = 0, Final residual = 0, No Iterations 0
ExecutionTime = 0.52 s  ClockTime = 2 s

Time = 9.32

nonePBiCG:  Solving for psi, Initial residual = 0, Final residual = 0, No Iterations 0
ExecutionTime = 0.52 s  ClockTime = 2 s

Time = 9.325

nonePBiCG:  Solving for psi, Initial residual = 0, Final residual = 0, No Iterations 0
ExecutionTime = 0.52 s  ClockTime = 2 s

Time = 9.33

nonePBiCG:  Solving for psi, Initial residual = 0, Final residual = 0, No Iterations 0
ExecutionTime = 0.52 s  ClockTime = 2 s

Time = 9.335

nonePBiCG:  Solving for psi, Initial residual = 0, Final residual = 0, No Iterations 0
ExecutionTime = 0.52 s  ClockTime = 2 s

Time = 9.34

nonePBiCG:  Solving for psi, Initial residual = 0, Final residual = 0, No Iterations 0
ExecutionTime = 0.52 s  ClockTime = 2 s

Time = 9.345

nonePBiCG:  Solving for psi, Initial residual = 0, Final residual = 0, No Iterations 0
ExecutionTime = 0.52 s  ClockTime = 2 s

Time = 9.35

nonePBiCG:  Solving for psi, Initial residual = 0, Final residual = 0, No Iterations 0
ExecutionTime = 0.52 s  ClockTime = 2 s

Time = 9.355

nonePBiCG:  Solving for psi, Initial residual = 0, Final residual = 0, No Iterations 0
ExecutionTime = 0.52 s  ClockTime = 2 s

Time = 9.36

nonePBiCG:  Solving for psi, Initial residual = 0, Final residual = 0, No Iterations 0
ExecutionTime = 0.52 s  ClockTime = 2 s

Time = 9.365

nonePBiCG:  Solving for psi, Initial residual = 0, Final residual = 0, No Iterations 0
ExecutionTime = 0.52 s  ClockTime = 2 s

Time = 9.37

nonePBiCG:  Solving for psi, Initial residual = 0, Final residual = 0, No Iterations 0
ExecutionTime = 0.52 s  ClockTime = 2 s

Time = 9.375

nonePBiCG:  Solving for psi, Initial residual = 0, Final residual = 0, No Iterations 0
ExecutionTime = 0.52 s  ClockTime = 2 s

Time = 9.38

nonePBiCG:  Solving for psi, Initial residual = 0, Final residual = 0, No Iterations 0
ExecutionTime = 0.52 s  ClockTime = 2 s

Time = 9.385

nonePBiCG:  Solving for psi, Initial residual = 0, Final residual = 0, No Iterations 0
ExecutionTime = 0.52 s  ClockTime = 2 s

Time = 9.39

nonePBiCG:  Solving for psi, Initial residual = 0, Final residual = 0, No Iterations 0
ExecutionTime = 0.52 s  ClockTime = 2 s

Time = 9.395

nonePBiCG:  Solving for psi, Initial residual = 0, Final residual = 0, No Iterations 0
ExecutionTime = 0.52 s  ClockTime = 2 s

Time = 9.4

nonePBiCG:  Solving for psi, Initial residual = 0, Final residual = 0, No Iterations 0
ExecutionTime = 0.52 s  ClockTime = 2 s

Time = 9.405

nonePBiCG:  Solving for psi, Initial residual = 0, Final residual = 0, No Iterations 0
ExecutionTime = 0.52 s  ClockTime = 2 s

Time = 9.41

nonePBiCG:  Solving for psi, Initial residual = 0, Final residual = 0, No Iterations 0
ExecutionTime = 0.52 s  ClockTime = 2 s

Time = 9.415

nonePBiCG:  Solving for psi, Initial residual = 0, Final residual = 0, No Iterations 0
ExecutionTime = 0.52 s  ClockTime = 2 s

Time = 9.42

nonePBiCG:  Solving for psi, Initial residual = 0, Final residual = 0, No Iterations 0
ExecutionTime = 0.52 s  ClockTime = 2 s

Time = 9.425

nonePBiCG:  Solving for psi, Initial residual = 0, Final residual = 0, No Iterations 0
ExecutionTime = 0.52 s  ClockTime = 2 s

Time = 9.43

nonePBiCG:  Solving for psi, Initial residual = 0, Final residual = 0, No Iterations 0
ExecutionTime = 0.52 s  ClockTime = 2 s

Time = 9.435

nonePBiCG:  Solving for psi, Initial residual = 0, Final residual = 0, No Iterations 0
ExecutionTime = 0.52 s  ClockTime = 2 s

Time = 9.44

nonePBiCG:  Solving for psi, Initial residual = 0, Final residual = 0, No Iterations 0
ExecutionTime = 0.52 s  ClockTime = 2 s

Time = 9.445

nonePBiCG:  Solving for psi, Initial residual = 0, Final residual = 0, No Iterations 0
ExecutionTime = 0.52 s  ClockTime = 2 s

Time = 9.45

nonePBiCG:  Solving for psi, Initial residual = 0, Final residual = 0, No Iterations 0
ExecutionTime = 0.52 s  ClockTime = 2 s

Time = 9.455

nonePBiCG:  Solving for psi, Initial residual = 0, Final residual = 0, No Iterations 0
ExecutionTime = 0.52 s  ClockTime = 2 s

Time = 9.46

nonePBiCG:  Solving for psi, Initial residual = 0, Final residual = 0, No Iterations 0
ExecutionTime = 0.52 s  ClockTime = 2 s

Time = 9.465

nonePBiCG:  Solving for psi, Initial residual = 0, Final residual = 0, No Iterations 0
ExecutionTime = 0.52 s  ClockTime = 2 s

Time = 9.47

nonePBiCG:  Solving for psi, Initial residual = 0, Final residual = 0, No Iterations 0
ExecutionTime = 0.52 s  ClockTime = 2 s

Time = 9.475

nonePBiCG:  Solving for psi, Initial residual = 0, Final residual = 0, No Iterations 0
ExecutionTime = 0.52 s  ClockTime = 2 s

Time = 9.48

nonePBiCG:  Solving for psi, Initial residual = 0, Final residual = 0, No Iterations 0
ExecutionTime = 0.52 s  ClockTime = 2 s

Time = 9.485

nonePBiCG:  Solving for psi, Initial residual = 0, Final residual = 0, No Iterations 0
ExecutionTime = 0.52 s  ClockTime = 2 s

Time = 9.49

nonePBiCG:  Solving for psi, Initial residual = 0, Final residual = 0, No Iterations 0
ExecutionTime = 0.52 s  ClockTime = 2 s

Time = 9.495

nonePBiCG:  Solving for psi, Initial residual = 0, Final residual = 0, No Iterations 0
ExecutionTime = 0.52 s  ClockTime = 2 s

Time = 9.5

nonePBiCG:  Solving for psi, Initial residual = 0, Final residual = 0, No Iterations 0
ExecutionTime = 0.52 s  ClockTime = 2 s

Time = 9.505

nonePBiCG:  Solving for psi, Initial residual = 0, Final residual = 0, No Iterations 0
ExecutionTime = 0.53 s  ClockTime = 2 s

Time = 9.51

nonePBiCG:  Solving for psi, Initial residual = 0, Final residual = 0, No Iterations 0
ExecutionTime = 0.53 s  ClockTime = 2 s

Time = 9.515

nonePBiCG:  Solving for psi, Initial residual = 0, Final residual = 0, No Iterations 0
ExecutionTime = 0.53 s  ClockTime = 2 s

Time = 9.52

nonePBiCG:  Solving for psi, Initial residual = 0, Final residual = 0, No Iterations 0
ExecutionTime = 0.53 s  ClockTime = 2 s

Time = 9.525

nonePBiCG:  Solving for psi, Initial residual = 0, Final residual = 0, No Iterations 0
ExecutionTime = 0.53 s  ClockTime = 2 s

Time = 9.53

nonePBiCG:  Solving for psi, Initial residual = 0, Final residual = 0, No Iterations 0
ExecutionTime = 0.53 s  ClockTime = 2 s

Time = 9.535

nonePBiCG:  Solving for psi, Initial residual = 0, Final residual = 0, No Iterations 0
ExecutionTime = 0.53 s  ClockTime = 2 s

Time = 9.54

nonePBiCG:  Solving for psi, Initial residual = 0, Final residual = 0, No Iterations 0
ExecutionTime = 0.54 s  ClockTime = 2 s

Time = 9.545

nonePBiCG:  Solving for psi, Initial residual = 0, Final residual = 0, No Iterations 0
ExecutionTime = 0.54 s  ClockTime = 2 s

Time = 9.55

nonePBiCG:  Solving for psi, Initial residual = 0, Final residual = 0, No Iterations 0
ExecutionTime = 0.54 s  ClockTime = 2 s

Time = 9.555

nonePBiCG:  Solving for psi, Initial residual = 0, Final residual = 0, No Iterations 0
ExecutionTime = 0.54 s  ClockTime = 2 s

Time = 9.56

nonePBiCG:  Solving for psi, Initial residual = 0, Final residual = 0, No Iterations 0
ExecutionTime = 0.54 s  ClockTime = 2 s

Time = 9.565

nonePBiCG:  Solving for psi, Initial residual = 0, Final residual = 0, No Iterations 0
ExecutionTime = 0.54 s  ClockTime = 2 s

Time = 9.57

nonePBiCG:  Solving for psi, Initial residual = 0, Final residual = 0, No Iterations 0
ExecutionTime = 0.54 s  ClockTime = 2 s

Time = 9.575

nonePBiCG:  Solving for psi, Initial residual = 0, Final residual = 0, No Iterations 0
ExecutionTime = 0.54 s  ClockTime = 2 s

Time = 9.58

nonePBiCG:  Solving for psi, Initial residual = 0, Final residual = 0, No Iterations 0
ExecutionTime = 0.54 s  ClockTime = 2 s

Time = 9.585

nonePBiCG:  Solving for psi, Initial residual = 0, Final residual = 0, No Iterations 0
ExecutionTime = 0.54 s  ClockTime = 2 s

Time = 9.59

nonePBiCG:  Solving for psi, Initial residual = 0, Final residual = 0, No Iterations 0
ExecutionTime = 0.54 s  ClockTime = 2 s

Time = 9.595

nonePBiCG:  Solving for psi, Initial residual = 0, Final residual = 0, No Iterations 0
ExecutionTime = 0.54 s  ClockTime = 2 s

Time = 9.6

nonePBiCG:  Solving for psi, Initial residual = 0, Final residual = 0, No Iterations 0
ExecutionTime = 0.54 s  ClockTime = 2 s

Time = 9.605

nonePBiCG:  Solving for psi, Initial residual = 0, Final residual = 0, No Iterations 0
ExecutionTime = 0.54 s  ClockTime = 2 s

Time = 9.61

nonePBiCG:  Solving for psi, Initial residual = 0, Final residual = 0, No Iterations 0
ExecutionTime = 0.54 s  ClockTime = 2 s

Time = 9.615

nonePBiCG:  Solving for psi, Initial residual = 0, Final residual = 0, No Iterations 0
ExecutionTime = 0.54 s  ClockTime = 2 s

Time = 9.62

nonePBiCG:  Solving for psi, Initial residual = 0, Final residual = 0, No Iterations 0
ExecutionTime = 0.54 s  ClockTime = 2 s

Time = 9.625

nonePBiCG:  Solving for psi, Initial residual = 0, Final residual = 0, No Iterations 0
ExecutionTime = 0.54 s  ClockTime = 2 s

Time = 9.63

nonePBiCG:  Solving for psi, Initial residual = 0, Final residual = 0, No Iterations 0
ExecutionTime = 0.54 s  ClockTime = 2 s

Time = 9.635

nonePBiCG:  Solving for psi, Initial residual = 0, Final residual = 0, No Iterations 0
ExecutionTime = 0.54 s  ClockTime = 2 s

Time = 9.64

nonePBiCG:  Solving for psi, Initial residual = 0, Final residual = 0, No Iterations 0
ExecutionTime = 0.54 s  ClockTime = 2 s

Time = 9.645

nonePBiCG:  Solving for psi, Initial residual = 0, Final residual = 0, No Iterations 0
ExecutionTime = 0.54 s  ClockTime = 2 s

Time = 9.65

nonePBiCG:  Solving for psi, Initial residual = 0, Final residual = 0, No Iterations 0
ExecutionTime = 0.54 s  ClockTime = 2 s

Time = 9.655

nonePBiCG:  Solving for psi, Initial residual = 0, Final residual = 0, No Iterations 0
ExecutionTime = 0.54 s  ClockTime = 2 s

Time = 9.66

nonePBiCG:  Solving for psi, Initial residual = 0, Final residual = 0, No Iterations 0
ExecutionTime = 0.54 s  ClockTime = 2 s

Time = 9.665

nonePBiCG:  Solving for psi, Initial residual = 0, Final residual = 0, No Iterations 0
ExecutionTime = 0.54 s  ClockTime = 2 s

Time = 9.67

nonePBiCG:  Solving for psi, Initial residual = 0, Final residual = 0, No Iterations 0
ExecutionTime = 0.54 s  ClockTime = 2 s

Time = 9.675

nonePBiCG:  Solving for psi, Initial residual = 0, Final residual = 0, No Iterations 0
ExecutionTime = 0.54 s  ClockTime = 2 s

Time = 9.68

nonePBiCG:  Solving for psi, Initial residual = 0, Final residual = 0, No Iterations 0
ExecutionTime = 0.54 s  ClockTime = 2 s

Time = 9.685

nonePBiCG:  Solving for psi, Initial residual = 0, Final residual = 0, No Iterations 0
ExecutionTime = 0.54 s  ClockTime = 2 s

Time = 9.69

nonePBiCG:  Solving for psi, Initial residual = 0, Final residual = 0, No Iterations 0
ExecutionTime = 0.54 s  ClockTime = 2 s

Time = 9.695

nonePBiCG:  Solving for psi, Initial residual = 0, Final residual = 0, No Iterations 0
ExecutionTime = 0.54 s  ClockTime = 2 s

Time = 9.7

nonePBiCG:  Solving for psi, Initial residual = 0, Final residual = 0, No Iterations 0
ExecutionTime = 0.54 s  ClockTime = 2 s

Time = 9.705

nonePBiCG:  Solving for psi, Initial residual = 0, Final residual = 0, No Iterations 0
ExecutionTime = 0.54 s  ClockTime = 2 s

Time = 9.71

nonePBiCG:  Solving for psi, Initial residual = 0, Final residual = 0, No Iterations 0
ExecutionTime = 0.54 s  ClockTime = 2 s

Time = 9.715

nonePBiCG:  Solving for psi, Initial residual = 0, Final residual = 0, No Iterations 0
ExecutionTime = 0.54 s  ClockTime = 2 s

Time = 9.72

nonePBiCG:  Solving for psi, Initial residual = 0, Final residual = 0, No Iterations 0
ExecutionTime = 0.54 s  ClockTime = 2 s

Time = 9.725

nonePBiCG:  Solving for psi, Initial residual = 0, Final residual = 0, No Iterations 0
ExecutionTime = 0.54 s  ClockTime = 2 s

Time = 9.73

nonePBiCG:  Solving for psi, Initial residual = 0, Final residual = 0, No Iterations 0
ExecutionTime = 0.54 s  ClockTime = 2 s

Time = 9.735

nonePBiCG:  Solving for psi, Initial residual = 0, Final residual = 0, No Iterations 0
ExecutionTime = 0.54 s  ClockTime = 2 s

Time = 9.74

nonePBiCG:  Solving for psi, Initial residual = 0, Final residual = 0, No Iterations 0
ExecutionTime = 0.54 s  ClockTime = 2 s

Time = 9.745

nonePBiCG:  Solving for psi, Initial residual = 0, Final residual = 0, No Iterations 0
ExecutionTime = 0.54 s  ClockTime = 2 s

Time = 9.75

nonePBiCG:  Solving for psi, Initial residual = 0, Final residual = 0, No Iterations 0
ExecutionTime = 0.54 s  ClockTime = 2 s

Time = 9.755

nonePBiCG:  Solving for psi, Initial residual = 0, Final residual = 0, No Iterations 0
ExecutionTime = 0.54 s  ClockTime = 2 s

Time = 9.76

nonePBiCG:  Solving for psi, Initial residual = 0, Final residual = 0, No Iterations 0
ExecutionTime = 0.54 s  ClockTime = 2 s

Time = 9.765

nonePBiCG:  Solving for psi, Initial residual = 0, Final residual = 0, No Iterations 0
ExecutionTime = 0.54 s  ClockTime = 2 s

Time = 9.77

nonePBiCG:  Solving for psi, Initial residual = 0, Final residual = 0, No Iterations 0
ExecutionTime = 0.54 s  ClockTime = 2 s

Time = 9.775

nonePBiCG:  Solving for psi, Initial residual = 0, Final residual = 0, No Iterations 0
ExecutionTime = 0.54 s  ClockTime = 2 s

Time = 9.78

nonePBiCG:  Solving for psi, Initial residual = 0, Final residual = 0, No Iterations 0
ExecutionTime = 0.54 s  ClockTime = 2 s

Time = 9.785

nonePBiCG:  Solving for psi, Initial residual = 0, Final residual = 0, No Iterations 0
ExecutionTime = 0.54 s  ClockTime = 2 s

Time = 9.79

nonePBiCG:  Solving for psi, Initial residual = 0, Final residual = 0, No Iterations 0
ExecutionTime = 0.54 s  ClockTime = 2 s

Time = 9.795

nonePBiCG:  Solving for psi, Initial residual = 0, Final residual = 0, No Iterations 0
ExecutionTime = 0.54 s  ClockTime = 2 s

Time = 9.8

nonePBiCG:  Solving for psi, Initial residual = 0, Final residual = 0, No Iterations 0
ExecutionTime = 0.54 s  ClockTime = 2 s

Time = 9.805

nonePBiCG:  Solving for psi, Initial residual = 0, Final residual = 0, No Iterations 0
ExecutionTime = 0.54 s  ClockTime = 2 s

Time = 9.81

nonePBiCG:  Solving for psi, Initial residual = 0, Final residual = 0, No Iterations 0
ExecutionTime = 0.54 s  ClockTime = 2 s

Time = 9.815

nonePBiCG:  Solving for psi, Initial residual = 0, Final residual = 0, No Iterations 0
ExecutionTime = 0.55 s  ClockTime = 2 s

Time = 9.82

nonePBiCG:  Solving for psi, Initial residual = 0, Final residual = 0, No Iterations 0
ExecutionTime = 0.55 s  ClockTime = 2 s

Time = 9.825

nonePBiCG:  Solving for psi, Initial residual = 0, Final residual = 0, No Iterations 0
ExecutionTime = 0.55 s  ClockTime = 2 s

Time = 9.83

nonePBiCG:  Solving for psi, Initial residual = 0, Final residual = 0, No Iterations 0
ExecutionTime = 0.55 s  ClockTime = 2 s

Time = 9.835

nonePBiCG:  Solving for psi, Initial residual = 0, Final residual = 0, No Iterations 0
ExecutionTime = 0.55 s  ClockTime = 2 s

Time = 9.84

nonePBiCG:  Solving for psi, Initial residual = 0, Final residual = 0, No Iterations 0
ExecutionTime = 0.55 s  ClockTime = 2 s

Time = 9.845

nonePBiCG:  Solving for psi, Initial residual = 0, Final residual = 0, No Iterations 0
ExecutionTime = 0.55 s  ClockTime = 2 s

Time = 9.85

nonePBiCG:  Solving for psi, Initial residual = 0, Final residual = 0, No Iterations 0
ExecutionTime = 0.55 s  ClockTime = 2 s

Time = 9.855

nonePBiCG:  Solving for psi, Initial residual = 0, Final residual = 0, No Iterations 0
ExecutionTime = 0.55 s  ClockTime = 2 s

Time = 9.86

nonePBiCG:  Solving for psi, Initial residual = 0, Final residual = 0, No Iterations 0
ExecutionTime = 0.55 s  ClockTime = 2 s

Time = 9.865

nonePBiCG:  Solving for psi, Initial residual = 0, Final residual = 0, No Iterations 0
ExecutionTime = 0.55 s  ClockTime = 2 s

Time = 9.87

nonePBiCG:  Solving for psi, Initial residual = 0, Final residual = 0, No Iterations 0
ExecutionTime = 0.55 s  ClockTime = 2 s

Time = 9.875

nonePBiCG:  Solving for psi, Initial residual = 0, Final residual = 0, No Iterations 0
ExecutionTime = 0.55 s  ClockTime = 2 s

Time = 9.88

nonePBiCG:  Solving for psi, Initial residual = 0, Final residual = 0, No Iterations 0
ExecutionTime = 0.55 s  ClockTime = 2 s

Time = 9.885

nonePBiCG:  Solving for psi, Initial residual = 0, Final residual = 0, No Iterations 0
ExecutionTime = 0.55 s  ClockTime = 2 s

Time = 9.89

nonePBiCG:  Solving for psi, Initial residual = 0, Final residual = 0, No Iterations 0
ExecutionTime = 0.55 s  ClockTime = 2 s

Time = 9.895

nonePBiCG:  Solving for psi, Initial residual = 0, Final residual = 0, No Iterations 0
ExecutionTime = 0.55 s  ClockTime = 2 s

Time = 9.9

nonePBiCG:  Solving for psi, Initial residual = 0, Final residual = 0, No Iterations 0
ExecutionTime = 0.55 s  ClockTime = 2 s

Time = 9.905

nonePBiCG:  Solving for psi, Initial residual = 0, Final residual = 0, No Iterations 0
ExecutionTime = 0.55 s  ClockTime = 2 s

Time = 9.91

nonePBiCG:  Solving for psi, Initial residual = 0, Final residual = 0, No Iterations 0
ExecutionTime = 0.55 s  ClockTime = 2 s

Time = 9.915

nonePBiCG:  Solving for psi, Initial residual = 0, Final residual = 0, No Iterations 0
ExecutionTime = 0.55 s  ClockTime = 2 s

Time = 9.92

nonePBiCG:  Solving for psi, Initial residual = 0, Final residual = 0, No Iterations 0
ExecutionTime = 0.55 s  ClockTime = 2 s

Time = 9.925

nonePBiCG:  Solving for psi, Initial residual = 0, Final residual = 0, No Iterations 0
ExecutionTime = 0.55 s  ClockTime = 2 s

Time = 9.93

nonePBiCG:  Solving for psi, Initial residual = 0, Final residual = 0, No Iterations 0
ExecutionTime = 0.55 s  ClockTime = 2 s

Time = 9.935

nonePBiCG:  Solving for psi, Initial residual = 0, Final residual = 0, No Iterations 0
ExecutionTime = 0.55 s  ClockTime = 2 s

Time = 9.94

nonePBiCG:  Solving for psi, Initial residual = 0, Final residual = 0, No Iterations 0
ExecutionTime = 0.55 s  ClockTime = 2 s

Time = 9.945

nonePBiCG:  Solving for psi, Initial residual = 0, Final residual = 0, No Iterations 0
ExecutionTime = 0.55 s  ClockTime = 2 s

Time = 9.95

nonePBiCG:  Solving for psi, Initial residual = 0, Final residual = 0, No Iterations 0
ExecutionTime = 0.55 s  ClockTime = 2 s

Time = 9.955

nonePBiCG:  Solving for psi, Initial residual = 0, Final residual = 0, No Iterations 0
ExecutionTime = 0.55 s  ClockTime = 2 s

Time = 9.96

nonePBiCG:  Solving for psi, Initial residual = 0, Final residual = 0, No Iterations 0
ExecutionTime = 0.55 s  ClockTime = 2 s

Time = 9.965

nonePBiCG:  Solving for psi, Initial residual = 0, Final residual = 0, No Iterations 0
ExecutionTime = 0.55 s  ClockTime = 2 s

Time = 9.97

nonePBiCG:  Solving for psi, Initial residual = 0, Final residual = 0, No Iterations 0
ExecutionTime = 0.55 s  ClockTime = 2 s

Time = 9.975

nonePBiCG:  Solving for psi, Initial residual = 0, Final residual = 0, No Iterations 0
ExecutionTime = 0.55 s  ClockTime = 2 s

Time = 9.98

nonePBiCG:  Solving for psi, Initial residual = 0, Final residual = 0, No Iterations 0
ExecutionTime = 0.55 s  ClockTime = 2 s

Time = 9.985

nonePBiCG:  Solving for psi, Initial residual = 0, Final residual = 0, No Iterations 0
ExecutionTime = 0.55 s  ClockTime = 2 s

Time = 9.99

nonePBiCG:  Solving for psi, Initial residual = 0, Final residual = 0, No Iterations 0
ExecutionTime = 0.55 s  ClockTime = 2 s

Time = 9.995

nonePBiCG:  Solving for psi, Initial residual = 0, Final residual = 0, No Iterations 0
ExecutionTime = 0.55 s  ClockTime = 2 s

Time = 10

nonePBiCG:  Solving for psi, Initial residual = 0, Final residual = 0, No Iterations 0
ExecutionTime = 0.55 s  ClockTime = 2 s

End

