/*---------------------------------------------------------------------------*\
| =========                 |                                                 |
| \\      /  F ield         | OpenFOAM: The Open Source CFD Toolbox           |
|  \\    /   O peration     | Version:  4.0                                   |
|   \\  /    A nd           | Web:      www.OpenFOAM.org                      |
|    \\/     M anipulation  |                                                 |
\*---------------------------------------------------------------------------*/
Build  : 4.0
Exec   : matrLaplacianFoam
Date   : Sep 08 2017
Time   : 00:33:54
Host   : "debian-dell"
PID    : 6157
Case   : /home/jenek/matrLaplacianFoam/testCase40
nProcs : 1
sigFpe : Enabling floating point exception trapping (FOAM_SIGFPE).
fileModificationChecking : Monitoring run-time modified files using timeStampMaster
allowSystemOperations : Allowing user-supplied system call operations

// * * * * * * * * * * * * * * * * * * * * * * * * * * * * * * * * * * * * * //
Create time

Create mesh for time = 0


SIMPLE: no convergence criteria found. Calculations will run for 3 steps.

Reading field T

Reading transportProperties

Reading diffusivity DT


Calculating temperature distribution

Time = 0.005

DICPCG:  Solving for T, Initial residual = 1, Final residual = 4.79984e-13, No Iterations 1
DICPCG:  Solving for T, Initial residual = 2.52637e-10, Final residual = 2.52637e-10, No Iterations 0
DICPCG:  Solving for T, Initial residual = 2.52637e-10, Final residual = 2.52637e-10, No Iterations 0
ExecutionTime = 0.01 s  ClockTime = 0 s

Time = 0.01

DICPCG:  Solving for T, Initial residual = 0.217391, Final residual = 1.04344e-13, No Iterations 1
DICPCG:  Solving for T, Initial residual = 4.21063e-11, Final residual = 4.21063e-11, No Iterations 0
DICPCG:  Solving for T, Initial residual = 4.21063e-11, Final residual = 4.21063e-11, No Iterations 0
ExecutionTime = 0.02 s  ClockTime = 0 s

Time = 0.015

DICPCG:  Solving for T, Initial residual = 0.121951, Final residual = 5.85258e-14, No Iterations 1
DICPCG:  Solving for T, Initial residual = 5.61417e-11, Final residual = 5.61417e-11, No Iterations 0
DICPCG:  Solving for T, Initial residual = 5.61417e-11, Final residual = 5.61417e-11, No Iterations 0
ExecutionTime = 0.02 s  ClockTime = 0 s

Time = 0.02

DICPCG:  Solving for T, Initial residual = 0.0847457, Final residual = 4.06705e-14, No Iterations 1
DICPCG:  Solving for T, Initial residual = 0, Final residual = 0, No Iterations 0
DICPCG:  Solving for T, Initial residual = 0, Final residual = 0, No Iterations 0
ExecutionTime = 0.02 s  ClockTime = 0 s

Time = 0.025

DICPCG:  Solving for T, Initial residual = 0.064935, Final residual = 3.11631e-14, No Iterations 1
DICPCG:  Solving for T, Initial residual = 5.05276e-11, Final residual = 5.05276e-11, No Iterations 0
DICPCG:  Solving for T, Initial residual = 5.05276e-11, Final residual = 5.05276e-11, No Iterations 0
ExecutionTime = 0.03 s  ClockTime = 0 s

Time = 0.03

DICPCG:  Solving for T, Initial residual = 0.0526316, Final residual = 2.52585e-14, No Iterations 1
DICPCG:  Solving for T, Initial residual = 1.40354e-11, Final residual = 1.40354e-11, No Iterations 0
DICPCG:  Solving for T, Initial residual = 1.40354e-11, Final residual = 1.40354e-11, No Iterations 0
ExecutionTime = 0.03 s  ClockTime = 0 s

Time = 0.035

DICPCG:  Solving for T, Initial residual = 0.0442478, Final residual = 2.12399e-14, No Iterations 1
DICPCG:  Solving for T, Initial residual = 2.40608e-11, Final residual = 2.40608e-11, No Iterations 0
DICPCG:  Solving for T, Initial residual = 2.40608e-11, Final residual = 2.40608e-11, No Iterations 0
ExecutionTime = 0.04 s  ClockTime = 0 s

Time = 0.04

DICPCG:  Solving for T, Initial residual = 0.0381679, Final residual = 1.83173e-14, No Iterations 1
DICPCG:  Solving for T, Initial residual = 0, Final residual = 0, No Iterations 0
DICPCG:  Solving for T, Initial residual = 0, Final residual = 0, No Iterations 0
ExecutionTime = 0.04 s  ClockTime = 0 s

Time = 0.045

DICPCG:  Solving for T, Initial residual = 0.033557, Final residual = 1.61069e-14, No Iterations 1
DICPCG:  Solving for T, Initial residual = 2.80709e-11, Final residual = 2.80709e-11, No Iterations 0
DICPCG:  Solving for T, Initial residual = 2.80709e-11, Final residual = 2.80709e-11, No Iterations 0
ExecutionTime = 0.05 s  ClockTime = 0 s

Time = 0.05

DICPCG:  Solving for T, Initial residual = 0.0299401, Final residual = 1.43697e-14, No Iterations 1
DICPCG:  Solving for T, Initial residual = 1.68425e-11, Final residual = 1.68425e-11, No Iterations 0
DICPCG:  Solving for T, Initial residual = 1.68425e-11, Final residual = 1.68425e-11, No Iterations 0
ExecutionTime = 0.05 s  ClockTime = 0 s

Time = 0.055

DICPCG:  Solving for T, Initial residual = 0.027027, Final residual = 1.29706e-14, No Iterations 1
DICPCG:  Solving for T, Initial residual = 1.53114e-11, Final residual = 1.53114e-11, No Iterations 0
DICPCG:  Solving for T, Initial residual = 1.53114e-11, Final residual = 1.53114e-11, No Iterations 0
ExecutionTime = 0.06 s  ClockTime = 0 s

Time = 0.06

DICPCG:  Solving for T, Initial residual = 0.0246305, Final residual = 1.18205e-14, No Iterations 1
DICPCG:  Solving for T, Initial residual = 2.10532e-11, Final residual = 2.10532e-11, No Iterations 0
DICPCG:  Solving for T, Initial residual = 2.10532e-11, Final residual = 2.10532e-11, No Iterations 0
ExecutionTime = 0.06 s  ClockTime = 0 s

Time = 0.065

DICPCG:  Solving for T, Initial residual = 0.0226244, Final residual = 1.08578e-14, No Iterations 1
DICPCG:  Solving for T, Initial residual = 1.29558e-11, Final residual = 1.29558e-11, No Iterations 0
DICPCG:  Solving for T, Initial residual = 1.29558e-11, Final residual = 1.29558e-11, No Iterations 0
ExecutionTime = 0.06 s  ClockTime = 0 s

Time = 0.07

DICPCG:  Solving for T, Initial residual = 0.0209205, Final residual = 1.004e-14, No Iterations 1
DICPCG:  Solving for T, Initial residual = 1.20304e-11, Final residual = 1.20304e-11, No Iterations 0
DICPCG:  Solving for T, Initial residual = 1.20304e-11, Final residual = 1.20304e-11, No Iterations 0
ExecutionTime = 0.07 s  ClockTime = 0 s

Time = 0.075

DICPCG:  Solving for T, Initial residual = 0.0194552, Final residual = 9.33754e-15, No Iterations 1
DICPCG:  Solving for T, Initial residual = 1.12284e-11, Final residual = 1.12284e-11, No Iterations 0
DICPCG:  Solving for T, Initial residual = 1.12284e-11, Final residual = 1.12284e-11, No Iterations 0
ExecutionTime = 0.07 s  ClockTime = 0 s

Time = 0.08

DICPCG:  Solving for T, Initial residual = 0.0181818, Final residual = 8.72701e-15, No Iterations 1
DICPCG:  Solving for T, Initial residual = 1.57899e-11, Final residual = 1.57899e-11, No Iterations 0
DICPCG:  Solving for T, Initial residual = 1.57899e-11, Final residual = 1.57899e-11, No Iterations 0
ExecutionTime = 0.07 s  ClockTime = 0 s

Time = 0.085

DICPCG:  Solving for T, Initial residual = 0.0170648, Final residual = 8.19088e-15, No Iterations 1
DICPCG:  Solving for T, Initial residual = 1.48611e-11, Final residual = 1.48611e-11, No Iterations 0
DICPCG:  Solving for T, Initial residual = 1.48611e-11, Final residual = 1.48611e-11, No Iterations 0
ExecutionTime = 0.08 s  ClockTime = 0 s

Time = 0.09

DICPCG:  Solving for T, Initial residual = 0.0160771, Final residual = 7.71565e-15, No Iterations 1
DICPCG:  Solving for T, Initial residual = 4.6785e-12, Final residual = 4.6785e-12, No Iterations 0
DICPCG:  Solving for T, Initial residual = 4.6785e-12, Final residual = 4.6785e-12, No Iterations 0
ExecutionTime = 0.08 s  ClockTime = 0 s

Time = 0.095

DICPCG:  Solving for T, Initial residual = 0.0151975, Final residual = 7.29572e-15, No Iterations 1
DICPCG:  Solving for T, Initial residual = 8.86452e-12, Final residual = 8.86452e-12, No Iterations 0
DICPCG:  Solving for T, Initial residual = 8.86452e-12, Final residual = 8.86452e-12, No Iterations 0
ExecutionTime = 0.08 s  ClockTime = 0 s

Time = 0.1

DICPCG:  Solving for T, Initial residual = 0.0144092, Final residual = 6.91623e-15, No Iterations 1
DICPCG:  Solving for T, Initial residual = 0, Final residual = 0, No Iterations 0
DICPCG:  Solving for T, Initial residual = 0, Final residual = 0, No Iterations 0
ExecutionTime = 0.1 s  ClockTime = 0 s

Time = 0.105

DICPCG:  Solving for T, Initial residual = 0.0136986, Final residual = 6.57466e-15, No Iterations 1
DICPCG:  Solving for T, Initial residual = 8.02029e-12, Final residual = 8.02029e-12, No Iterations 0
DICPCG:  Solving for T, Initial residual = 8.02029e-12, Final residual = 8.02029e-12, No Iterations 0
ExecutionTime = 0.11 s  ClockTime = 0 s

Time = 0.11

DICPCG:  Solving for T, Initial residual = 0.0130548, Final residual = 6.26567e-15, No Iterations 1
DICPCG:  Solving for T, Initial residual = 3.82787e-12, Final residual = 3.82787e-12, No Iterations 0
DICPCG:  Solving for T, Initial residual = 3.82787e-12, Final residual = 3.82787e-12, No Iterations 0
ExecutionTime = 0.11 s  ClockTime = 0 s

Time = 0.115

DICPCG:  Solving for T, Initial residual = 0.0124688, Final residual = 5.98577e-15, No Iterations 1
DICPCG:  Solving for T, Initial residual = 3.66144e-12, Final residual = 3.66144e-12, No Iterations 0
DICPCG:  Solving for T, Initial residual = 3.66144e-12, Final residual = 3.66144e-12, No Iterations 0
ExecutionTime = 0.12 s  ClockTime = 0 s

Time = 0.12

DICPCG:  Solving for T, Initial residual = 0.0119331, Final residual = 5.72776e-15, No Iterations 1
DICPCG:  Solving for T, Initial residual = 0, Final residual = 0, No Iterations 0
DICPCG:  Solving for T, Initial residual = 0, Final residual = 0, No Iterations 0
ExecutionTime = 0.12 s  ClockTime = 0 s

Time = 0.125

DICPCG:  Solving for T, Initial residual = 0.0114416, Final residual = 5.49184e-15, No Iterations 1
DICPCG:  Solving for T, Initial residual = 3.36852e-12, Final residual = 3.36852e-12, No Iterations 0
DICPCG:  Solving for T, Initial residual = 3.36852e-12, Final residual = 3.36852e-12, No Iterations 0
ExecutionTime = 0.13 s  ClockTime = 0 s

Time = 0.13

DICPCG:  Solving for T, Initial residual = 0.010989, Final residual = 5.27379e-15, No Iterations 1
DICPCG:  Solving for T, Initial residual = 6.47793e-12, Final residual = 6.47793e-12, No Iterations 0
DICPCG:  Solving for T, Initial residual = 6.47793e-12, Final residual = 6.47793e-12, No Iterations 0
ExecutionTime = 0.13 s  ClockTime = 0 s

Time = 0.135

DICPCG:  Solving for T, Initial residual = 0.0105708, Final residual = 5.07348e-15, No Iterations 1
DICPCG:  Solving for T, Initial residual = 6.23801e-12, Final residual = 6.23801e-12, No Iterations 0
DICPCG:  Solving for T, Initial residual = 6.23801e-12, Final residual = 6.23801e-12, No Iterations 0
ExecutionTime = 0.14 s  ClockTime = 0 s

Time = 0.14

DICPCG:  Solving for T, Initial residual = 0.0101833, Final residual = 4.88712e-15, No Iterations 1
DICPCG:  Solving for T, Initial residual = 6.01523e-12, Final residual = 6.01523e-12, No Iterations 0
DICPCG:  Solving for T, Initial residual = 6.01523e-12, Final residual = 6.01523e-12, No Iterations 0
ExecutionTime = 0.15 s  ClockTime = 0 s

Time = 0.145

DICPCG:  Solving for T, Initial residual = 0.00982316, Final residual = 4.71465e-15, No Iterations 1
DICPCG:  Solving for T, Initial residual = 0, Final residual = 0, No Iterations 0
DICPCG:  Solving for T, Initial residual = 0, Final residual = 0, No Iterations 0
ExecutionTime = 0.15 s  ClockTime = 0 s

Time = 0.15

DICPCG:  Solving for T, Initial residual = 0.00948764, Final residual = 4.5543e-15, No Iterations 1
DICPCG:  Solving for T, Initial residual = 5.61422e-12, Final residual = 5.61422e-12, No Iterations 0
DICPCG:  Solving for T, Initial residual = 5.61422e-12, Final residual = 5.61422e-12, No Iterations 0
ExecutionTime = 0.16 s  ClockTime = 0 s

Time = 0.155

DICPCG:  Solving for T, Initial residual = 0.00917429, Final residual = 4.40355e-15, No Iterations 1
DICPCG:  Solving for T, Initial residual = 2.71656e-12, Final residual = 2.71656e-12, No Iterations 0
DICPCG:  Solving for T, Initial residual = 2.71656e-12, Final residual = 2.71656e-12, No Iterations 0
ExecutionTime = 0.16 s  ClockTime = 0 s

Time = 0.16

DICPCG:  Solving for T, Initial residual = 0.00888097, Final residual = 4.26277e-15, No Iterations 1
DICPCG:  Solving for T, Initial residual = 7.895e-12, Final residual = 7.895e-12, No Iterations 0
DICPCG:  Solving for T, Initial residual = 7.895e-12, Final residual = 7.895e-12, No Iterations 0
ExecutionTime = 0.16 s  ClockTime = 0 s

Time = 0.165

DICPCG:  Solving for T, Initial residual = 0.00860583, Final residual = 4.1307e-15, No Iterations 1
DICPCG:  Solving for T, Initial residual = 7.65576e-12, Final residual = 7.65576e-12, No Iterations 0
DICPCG:  Solving for T, Initial residual = 7.65576e-12, Final residual = 7.65576e-12, No Iterations 0
ExecutionTime = 0.17 s  ClockTime = 0 s

Time = 0.17

DICPCG:  Solving for T, Initial residual = 0.00834722, Final residual = 4.00597e-15, No Iterations 1
DICPCG:  Solving for T, Initial residual = 4.95373e-12, Final residual = 4.95373e-12, No Iterations 0
DICPCG:  Solving for T, Initial residual = 4.95373e-12, Final residual = 4.95373e-12, No Iterations 0
ExecutionTime = 0.17 s  ClockTime = 0 s

Time = 0.175

DICPCG:  Solving for T, Initial residual = 0.0081037, Final residual = 3.88998e-15, No Iterations 1
DICPCG:  Solving for T, Initial residual = 4.81219e-12, Final residual = 4.81219e-12, No Iterations 0
DICPCG:  Solving for T, Initial residual = 4.81219e-12, Final residual = 4.81219e-12, No Iterations 0
ExecutionTime = 0.18 s  ClockTime = 0 s

Time = 0.18

DICPCG:  Solving for T, Initial residual = 0.00787399, Final residual = 3.77943e-15, No Iterations 1
DICPCG:  Solving for T, Initial residual = 2.33926e-12, Final residual = 2.33926e-12, No Iterations 0
DICPCG:  Solving for T, Initial residual = 2.33926e-12, Final residual = 2.33926e-12, No Iterations 0
ExecutionTime = 0.18 s  ClockTime = 0 s

Time = 0.185

DICPCG:  Solving for T, Initial residual = 0.00765694, Final residual = 3.67525e-15, No Iterations 1
DICPCG:  Solving for T, Initial residual = 4.55208e-12, Final residual = 4.55208e-12, No Iterations 0
DICPCG:  Solving for T, Initial residual = 4.55208e-12, Final residual = 4.55208e-12, No Iterations 0
ExecutionTime = 0.18 s  ClockTime = 0 s

Time = 0.19

DICPCG:  Solving for T, Initial residual = 0.00745154, Final residual = 3.57666e-15, No Iterations 1
DICPCG:  Solving for T, Initial residual = 2.21614e-12, Final residual = 2.21614e-12, No Iterations 0
DICPCG:  Solving for T, Initial residual = 2.21614e-12, Final residual = 2.21614e-12, No Iterations 0
ExecutionTime = 0.19 s  ClockTime = 0 s

Time = 0.195

DICPCG:  Solving for T, Initial residual = 0.00725687, Final residual = 3.48296e-15, No Iterations 1
DICPCG:  Solving for T, Initial residual = 4.31864e-12, Final residual = 4.31864e-12, No Iterations 0
DICPCG:  Solving for T, Initial residual = 4.31864e-12, Final residual = 4.31864e-12, No Iterations 0
ExecutionTime = 0.2 s  ClockTime = 0 s

Time = 0.2

DICPCG:  Solving for T, Initial residual = 0.00707211, Final residual = 3.39403e-15, No Iterations 1
DICPCG:  Solving for T, Initial residual = 4.21068e-12, Final residual = 4.21068e-12, No Iterations 0
DICPCG:  Solving for T, Initial residual = 4.21068e-12, Final residual = 4.21068e-12, No Iterations 0
ExecutionTime = 0.2 s  ClockTime = 1 s

Time = 0.205

DICPCG:  Solving for T, Initial residual = 0.00689653, Final residual = 3.31027e-15, No Iterations 1
DICPCG:  Solving for T, Initial residual = 2.05399e-12, Final residual = 2.05399e-12, No Iterations 0
DICPCG:  Solving for T, Initial residual = 2.05399e-12, Final residual = 2.05399e-12, No Iterations 0
ExecutionTime = 0.2 s  ClockTime = 1 s

Time = 0.21

DICPCG:  Solving for T, Initial residual = 0.00672945, Final residual = 3.22959e-15, No Iterations 1
DICPCG:  Solving for T, Initial residual = 2.00508e-12, Final residual = 2.00508e-12, No Iterations 0
DICPCG:  Solving for T, Initial residual = 2.00508e-12, Final residual = 2.00508e-12, No Iterations 0
ExecutionTime = 0.21 s  ClockTime = 1 s

Time = 0.215

DICPCG:  Solving for T, Initial residual = 0.00657028, Final residual = 3.1532e-15, No Iterations 1
DICPCG:  Solving for T, Initial residual = 1.95846e-12, Final residual = 1.95846e-12, No Iterations 0
DICPCG:  Solving for T, Initial residual = 1.95846e-12, Final residual = 1.95846e-12, No Iterations 0
ExecutionTime = 0.21 s  ClockTime = 1 s

Time = 0.22

DICPCG:  Solving for T, Initial residual = 0.00641846, Final residual = 3.0808e-15, No Iterations 1
DICPCG:  Solving for T, Initial residual = 3.82789e-12, Final residual = 3.82789e-12, No Iterations 0
DICPCG:  Solving for T, Initial residual = 3.82789e-12, Final residual = 3.82789e-12, No Iterations 0
ExecutionTime = 0.21 s  ClockTime = 1 s

Time = 0.225

DICPCG:  Solving for T, Initial residual = 0.0062735, Final residual = 3.01122e-15, No Iterations 1
DICPCG:  Solving for T, Initial residual = 5.61424e-12, Final residual = 5.61424e-12, No Iterations 0
DICPCG:  Solving for T, Initial residual = 5.61424e-12, Final residual = 5.61424e-12, No Iterations 0
ExecutionTime = 0.22 s  ClockTime = 1 s

Time = 0.23

DICPCG:  Solving for T, Initial residual = 0.00613494, Final residual = 2.94428e-15, No Iterations 1
DICPCG:  Solving for T, Initial residual = 3.66146e-12, Final residual = 3.66146e-12, No Iterations 0
DICPCG:  Solving for T, Initial residual = 3.66146e-12, Final residual = 3.66146e-12, No Iterations 0
ExecutionTime = 0.22 s  ClockTime = 1 s

Time = 0.235

DICPCG:  Solving for T, Initial residual = 0.00600238, Final residual = 2.88065e-15, No Iterations 1
DICPCG:  Solving for T, Initial residual = 1.79178e-12, Final residual = 1.79178e-12, No Iterations 0
DICPCG:  Solving for T, Initial residual = 1.79178e-12, Final residual = 1.79178e-12, No Iterations 0
ExecutionTime = 0.23 s  ClockTime = 1 s

Time = 0.24

DICPCG:  Solving for T, Initial residual = 0.00587542, Final residual = 2.81972e-15, No Iterations 1
DICPCG:  Solving for T, Initial residual = 3.5089e-12, Final residual = 3.5089e-12, No Iterations 0
DICPCG:  Solving for T, Initial residual = 3.5089e-12, Final residual = 3.5089e-12, No Iterations 0
ExecutionTime = 0.23 s  ClockTime = 1 s

Time = 0.245

DICPCG:  Solving for T, Initial residual = 0.00575372, Final residual = 2.76132e-15, No Iterations 1
DICPCG:  Solving for T, Initial residual = 6.87459e-12, Final residual = 6.87459e-12, No Iterations 0
DICPCG:  Solving for T, Initial residual = 6.87459e-12, Final residual = 6.87459e-12, No Iterations 0
ExecutionTime = 0.24 s  ClockTime = 1 s

Time = 0.25

DICPCG:  Solving for T, Initial residual = 0.00563695, Final residual = 2.70508e-15, No Iterations 1
DICPCG:  Solving for T, Initial residual = 3.36855e-12, Final residual = 3.36855e-12, No Iterations 0
DICPCG:  Solving for T, Initial residual = 3.36855e-12, Final residual = 3.36855e-12, No Iterations 0
ExecutionTime = 0.24 s  ClockTime = 1 s

Time = 0.255

DICPCG:  Solving for T, Initial residual = 0.00552484, Final residual = 2.65188e-15, No Iterations 1
DICPCG:  Solving for T, Initial residual = 4.95375e-12, Final residual = 4.95375e-12, No Iterations 0
DICPCG:  Solving for T, Initial residual = 4.95375e-12, Final residual = 4.95375e-12, No Iterations 0
ExecutionTime = 0.25 s  ClockTime = 1 s

Time = 0.26

DICPCG:  Solving for T, Initial residual = 0.00541709, Final residual = 2.59977e-15, No Iterations 1
DICPCG:  Solving for T, Initial residual = 0, Final residual = 0, No Iterations 0
DICPCG:  Solving for T, Initial residual = 0, Final residual = 0, No Iterations 0
ExecutionTime = 0.25 s  ClockTime = 1 s

Time = 0.265

DICPCG:  Solving for T, Initial residual = 0.00531347, Final residual = 2.55004e-15, No Iterations 1
DICPCG:  Solving for T, Initial residual = 3.17788e-12, Final residual = 3.17788e-12, No Iterations 0
DICPCG:  Solving for T, Initial residual = 3.17788e-12, Final residual = 3.17788e-12, No Iterations 0
ExecutionTime = 0.25 s  ClockTime = 1 s

Time = 0.27

DICPCG:  Solving for T, Initial residual = 0.00521374, Final residual = 2.50218e-15, No Iterations 1
DICPCG:  Solving for T, Initial residual = 0, Final residual = 0, No Iterations 0
DICPCG:  Solving for T, Initial residual = 0, Final residual = 0, No Iterations 0
ExecutionTime = 0.26 s  ClockTime = 1 s

Time = 0.275

DICPCG:  Solving for T, Initial residual = 0.00511768, Final residual = 2.45608e-15, No Iterations 1
DICPCG:  Solving for T, Initial residual = 3.06232e-12, Final residual = 3.06232e-12, No Iterations 0
DICPCG:  Solving for T, Initial residual = 3.06232e-12, Final residual = 3.06232e-12, No Iterations 0
ExecutionTime = 0.27 s  ClockTime = 1 s

Time = 0.28

DICPCG:  Solving for T, Initial residual = 0.0050251, Final residual = 2.41201e-15, No Iterations 1
DICPCG:  Solving for T, Initial residual = 1.50382e-12, Final residual = 1.50382e-12, No Iterations 0
DICPCG:  Solving for T, Initial residual = 1.50382e-12, Final residual = 1.50382e-12, No Iterations 0
ExecutionTime = 0.28 s  ClockTime = 1 s

Time = 0.285

DICPCG:  Solving for T, Initial residual = 0.00493581, Final residual = 2.36844e-15, No Iterations 1
DICPCG:  Solving for T, Initial residual = 4.43231e-12, Final residual = 4.43231e-12, No Iterations 0
DICPCG:  Solving for T, Initial residual = 4.43231e-12, Final residual = 4.43231e-12, No Iterations 0
ExecutionTime = 0.28 s  ClockTime = 1 s

Time = 0.29

DICPCG:  Solving for T, Initial residual = 0.00484964, Final residual = 2.32744e-15, No Iterations 1
DICPCG:  Solving for T, Initial residual = 2.90393e-12, Final residual = 2.90393e-12, No Iterations 0
DICPCG:  Solving for T, Initial residual = 2.90393e-12, Final residual = 2.90393e-12, No Iterations 0
ExecutionTime = 0.28 s  ClockTime = 1 s

Time = 0.295

DICPCG:  Solving for T, Initial residual = 0.00476642, Final residual = 2.28785e-15, No Iterations 1
DICPCG:  Solving for T, Initial residual = 1.42736e-12, Final residual = 1.42736e-12, No Iterations 0
DICPCG:  Solving for T, Initial residual = 1.42736e-12, Final residual = 1.42736e-12, No Iterations 0
ExecutionTime = 0.29 s  ClockTime = 1 s

Time = 0.3

DICPCG:  Solving for T, Initial residual = 0.00468601, Final residual = 2.24875e-15, No Iterations 1
DICPCG:  Solving for T, Initial residual = 4.2107e-12, Final residual = 4.2107e-12, No Iterations 0
DICPCG:  Solving for T, Initial residual = 4.2107e-12, Final residual = 4.2107e-12, No Iterations 0
ExecutionTime = 0.3 s  ClockTime = 1 s

Time = 0.305

DICPCG:  Solving for T, Initial residual = 0.00460827, Final residual = 2.21177e-15, No Iterations 1
DICPCG:  Solving for T, Initial residual = 2.76112e-12, Final residual = 2.76112e-12, No Iterations 0
DICPCG:  Solving for T, Initial residual = 2.76112e-12, Final residual = 2.76112e-12, No Iterations 0
ExecutionTime = 0.3 s  ClockTime = 1 s

Time = 0.31

DICPCG:  Solving for T, Initial residual = 0.00453307, Final residual = 2.17552e-15, No Iterations 1
DICPCG:  Solving for T, Initial residual = 4.07488e-12, Final residual = 4.07488e-12, No Iterations 0
DICPCG:  Solving for T, Initial residual = 4.07488e-12, Final residual = 4.07488e-12, No Iterations 0
ExecutionTime = 0.31 s  ClockTime = 1 s

Time = 0.315

DICPCG:  Solving for T, Initial residual = 0.00446028, Final residual = 2.14026e-15, No Iterations 1
DICPCG:  Solving for T, Initial residual = 1.33673e-12, Final residual = 1.33673e-12, No Iterations 0
DICPCG:  Solving for T, Initial residual = 1.33673e-12, Final residual = 1.33673e-12, No Iterations 0
ExecutionTime = 0.31 s  ClockTime = 1 s

Time = 0.32

DICPCG:  Solving for T, Initial residual = 0.00438979, Final residual = 2.10676e-15, No Iterations 1
DICPCG:  Solving for T, Initial residual = 3.94754e-12, Final residual = 3.94754e-12, No Iterations 0
DICPCG:  Solving for T, Initial residual = 3.94754e-12, Final residual = 3.94754e-12, No Iterations 0
ExecutionTime = 0.32 s  ClockTime = 1 s

Time = 0.325

DICPCG:  Solving for T, Initial residual = 0.0043215, Final residual = 2.07398e-15, No Iterations 1
DICPCG:  Solving for T, Initial residual = 2.59121e-12, Final residual = 2.59121e-12, No Iterations 0
DICPCG:  Solving for T, Initial residual = 2.59121e-12, Final residual = 2.59121e-12, No Iterations 0
ExecutionTime = 0.32 s  ClockTime = 1 s

Time = 0.33

DICPCG:  Solving for T, Initial residual = 0.00425529, Final residual = 2.04252e-15, No Iterations 1
DICPCG:  Solving for T, Initial residual = 1.27597e-12, Final residual = 1.27597e-12, No Iterations 0
DICPCG:  Solving for T, Initial residual = 1.27597e-12, Final residual = 1.27597e-12, No Iterations 0
ExecutionTime = 0.32 s  ClockTime = 1 s

Time = 0.335

DICPCG:  Solving for T, Initial residual = 0.00419109, Final residual = 2.012e-15, No Iterations 1
DICPCG:  Solving for T, Initial residual = 3.77079e-12, Final residual = 3.77079e-12, No Iterations 0
DICPCG:  Solving for T, Initial residual = 3.77079e-12, Final residual = 3.77079e-12, No Iterations 0
ExecutionTime = 0.33 s  ClockTime = 1 s

Time = 0.34

DICPCG:  Solving for T, Initial residual = 0.00412879, Final residual = 1.98195e-15, No Iterations 1
DICPCG:  Solving for T, Initial residual = 2.47689e-12, Final residual = 2.47689e-12, No Iterations 0
DICPCG:  Solving for T, Initial residual = 2.47689e-12, Final residual = 2.47689e-12, No Iterations 0
ExecutionTime = 0.34 s  ClockTime = 1 s

Time = 0.345

DICPCG:  Solving for T, Initial residual = 0.00406832, Final residual = 1.95292e-15, No Iterations 1
DICPCG:  Solving for T, Initial residual = 3.66149e-12, Final residual = 3.66149e-12, No Iterations 0
DICPCG:  Solving for T, Initial residual = 3.66149e-12, Final residual = 3.66149e-12, No Iterations 0
ExecutionTime = 0.34 s  ClockTime = 1 s

Time = 0.35

DICPCG:  Solving for T, Initial residual = 0.0040096, Final residual = 1.9243e-15, No Iterations 1
DICPCG:  Solving for T, Initial residual = 1.20306e-12, Final residual = 1.20306e-12, No Iterations 0
DICPCG:  Solving for T, Initial residual = 1.20306e-12, Final residual = 1.20306e-12, No Iterations 0
ExecutionTime = 0.34 s  ClockTime = 1 s

Time = 0.355

DICPCG:  Solving for T, Initial residual = 0.00395254, Final residual = 1.89692e-15, No Iterations 1
DICPCG:  Solving for T, Initial residual = 4.74447e-12, Final residual = 4.74447e-12, No Iterations 0
DICPCG:  Solving for T, Initial residual = 4.74447e-12, Final residual = 4.74447e-12, No Iterations 0
ExecutionTime = 0.35 s  ClockTime = 1 s

Time = 0.36

DICPCG:  Solving for T, Initial residual = 0.00389709, Final residual = 1.87044e-15, No Iterations 1
DICPCG:  Solving for T, Initial residual = 0, Final residual = 0, No Iterations 0
DICPCG:  Solving for T, Initial residual = 0, Final residual = 0, No Iterations 0
ExecutionTime = 0.35 s  ClockTime = 1 s

Time = 0.365

DICPCG:  Solving for T, Initial residual = 0.00384317, Final residual = 1.84443e-15, No Iterations 1
DICPCG:  Solving for T, Initial residual = 4.61449e-12, Final residual = 4.61449e-12, No Iterations 0
DICPCG:  Solving for T, Initial residual = 4.61449e-12, Final residual = 4.61449e-12, No Iterations 0
ExecutionTime = 0.35 s  ClockTime = 1 s

Time = 0.37

DICPCG:  Solving for T, Initial residual = 0.00379073, Final residual = 1.81939e-15, No Iterations 1
DICPCG:  Solving for T, Initial residual = 3.4141e-12, Final residual = 3.4141e-12, No Iterations 0
DICPCG:  Solving for T, Initial residual = 3.4141e-12, Final residual = 3.4141e-12, No Iterations 0
ExecutionTime = 0.36 s  ClockTime = 1 s

Time = 0.375

DICPCG:  Solving for T, Initial residual = 0.00373969, Final residual = 1.79504e-15, No Iterations 1
DICPCG:  Solving for T, Initial residual = 2.24572e-12, Final residual = 2.24572e-12, No Iterations 0
DICPCG:  Solving for T, Initial residual = 2.24572e-12, Final residual = 2.24572e-12, No Iterations 0
ExecutionTime = 0.36 s  ClockTime = 1 s

Time = 0.38

DICPCG:  Solving for T, Initial residual = 0.00369001, Final residual = 1.77092e-15, No Iterations 1
DICPCG:  Solving for T, Initial residual = 1.10808e-12, Final residual = 1.10808e-12, No Iterations 0
DICPCG:  Solving for T, Initial residual = 1.10808e-12, Final residual = 1.10808e-12, No Iterations 0
ExecutionTime = 0.37 s  ClockTime = 1 s

Time = 0.385

DICPCG:  Solving for T, Initial residual = 0.00364164, Final residual = 1.74771e-15, No Iterations 1
DICPCG:  Solving for T, Initial residual = 0, Final residual = 0, No Iterations 0
DICPCG:  Solving for T, Initial residual = 0, Final residual = 0, No Iterations 0
ExecutionTime = 0.37 s  ClockTime = 1 s

Time = 0.39

DICPCG:  Solving for T, Initial residual = 0.00359451, Final residual = 1.72509e-15, No Iterations 1
DICPCG:  Solving for T, Initial residual = 2.15935e-12, Final residual = 2.15935e-12, No Iterations 0
DICPCG:  Solving for T, Initial residual = 2.15935e-12, Final residual = 2.15935e-12, No Iterations 0
ExecutionTime = 0.38 s  ClockTime = 1 s

Time = 0.395

DICPCG:  Solving for T, Initial residual = 0.00354859, Final residual = 1.70318e-15, No Iterations 1
DICPCG:  Solving for T, Initial residual = 2.13201e-12, Final residual = 2.13201e-12, No Iterations 0
DICPCG:  Solving for T, Initial residual = 2.13201e-12, Final residual = 2.13201e-12, No Iterations 0
ExecutionTime = 0.38 s  ClockTime = 1 s

Time = 0.4

DICPCG:  Solving for T, Initial residual = 0.00350383, Final residual = 1.68157e-15, No Iterations 1
DICPCG:  Solving for T, Initial residual = 4.21073e-12, Final residual = 4.21073e-12, No Iterations 0
DICPCG:  Solving for T, Initial residual = 4.21073e-12, Final residual = 4.21073e-12, No Iterations 0
ExecutionTime = 0.39 s  ClockTime = 1 s

Time = 0.405

DICPCG:  Solving for T, Initial residual = 0.00346018, Final residual = 1.66075e-15, No Iterations 1
DICPCG:  Solving for T, Initial residual = 5.19843e-12, Final residual = 5.19843e-12, No Iterations 0
DICPCG:  Solving for T, Initial residual = 5.19843e-12, Final residual = 5.19843e-12, No Iterations 0
ExecutionTime = 0.39 s  ClockTime = 1 s

Time = 0.41

DICPCG:  Solving for T, Initial residual = 0.00341761, Final residual = 1.64032e-15, No Iterations 1
DICPCG:  Solving for T, Initial residual = 1.02701e-12, Final residual = 1.02701e-12, No Iterations 0
DICPCG:  Solving for T, Initial residual = 1.02701e-12, Final residual = 1.02701e-12, No Iterations 0
ExecutionTime = 0.4 s  ClockTime = 1 s

Time = 0.415

DICPCG:  Solving for T, Initial residual = 0.00337607, Final residual = 1.62038e-15, No Iterations 1
DICPCG:  Solving for T, Initial residual = 3.0439e-12, Final residual = 3.0439e-12, No Iterations 0
DICPCG:  Solving for T, Initial residual = 3.0439e-12, Final residual = 3.0439e-12, No Iterations 0
ExecutionTime = 0.4 s  ClockTime = 1 s

Time = 0.42

DICPCG:  Solving for T, Initial residual = 0.00333553, Final residual = 1.60093e-15, No Iterations 1
DICPCG:  Solving for T, Initial residual = 3.00767e-12, Final residual = 3.00767e-12, No Iterations 0
DICPCG:  Solving for T, Initial residual = 3.00767e-12, Final residual = 3.00767e-12, No Iterations 0
ExecutionTime = 0.4 s  ClockTime = 1 s

Time = 0.425

DICPCG:  Solving for T, Initial residual = 0.00329595, Final residual = 1.58193e-15, No Iterations 1
DICPCG:  Solving for T, Initial residual = 1.98152e-12, Final residual = 1.98152e-12, No Iterations 0
DICPCG:  Solving for T, Initial residual = 1.98152e-12, Final residual = 1.98152e-12, No Iterations 0
ExecutionTime = 0.41 s  ClockTime = 1 s

Time = 0.43

DICPCG:  Solving for T, Initial residual = 0.0032573, Final residual = 1.56326e-15, No Iterations 1
DICPCG:  Solving for T, Initial residual = 1.95848e-12, Final residual = 1.95848e-12, No Iterations 0
DICPCG:  Solving for T, Initial residual = 1.95848e-12, Final residual = 1.95848e-12, No Iterations 0
ExecutionTime = 0.42 s  ClockTime = 1 s

Time = 0.435

DICPCG:  Solving for T, Initial residual = 0.00321955, Final residual = 1.54514e-15, No Iterations 1
DICPCG:  Solving for T, Initial residual = 9.67986e-13, Final residual = 9.67986e-13, No Iterations 0
DICPCG:  Solving for T, Initial residual = 9.67986e-13, Final residual = 9.67986e-13, No Iterations 0
ExecutionTime = 0.42 s  ClockTime = 1 s

Time = 0.44

DICPCG:  Solving for T, Initial residual = 0.00318266, Final residual = 1.52767e-15, No Iterations 1
DICPCG:  Solving for T, Initial residual = 2.87096e-12, Final residual = 2.87096e-12, No Iterations 0
DICPCG:  Solving for T, Initial residual = 2.87096e-12, Final residual = 2.87096e-12, No Iterations 0
ExecutionTime = 0.43 s  ClockTime = 1 s

Time = 0.445

DICPCG:  Solving for T, Initial residual = 0.00314661, Final residual = 1.51014e-15, No Iterations 1
DICPCG:  Solving for T, Initial residual = 1.89247e-12, Final residual = 1.89247e-12, No Iterations 0
DICPCG:  Solving for T, Initial residual = 1.89247e-12, Final residual = 1.89247e-12, No Iterations 0
ExecutionTime = 0.43 s  ClockTime = 1 s

Time = 0.45

DICPCG:  Solving for T, Initial residual = 0.00311136, Final residual = 1.49334e-15, No Iterations 1
DICPCG:  Solving for T, Initial residual = 1.87144e-12, Final residual = 1.87144e-12, No Iterations 0
DICPCG:  Solving for T, Initial residual = 1.87144e-12, Final residual = 1.87144e-12, No Iterations 0
ExecutionTime = 0.43 s  ClockTime = 1 s

Time = 0.455

DICPCG:  Solving for T, Initial residual = 0.0030769, Final residual = 1.47668e-15, No Iterations 1
DICPCG:  Solving for T, Initial residual = 1.85088e-12, Final residual = 1.85088e-12, No Iterations 0
DICPCG:  Solving for T, Initial residual = 1.85088e-12, Final residual = 1.85088e-12, No Iterations 0
ExecutionTime = 0.44 s  ClockTime = 1 s

Time = 0.46

DICPCG:  Solving for T, Initial residual = 0.00304319, Final residual = 1.46051e-15, No Iterations 1
DICPCG:  Solving for T, Initial residual = 2.74614e-12, Final residual = 2.74614e-12, No Iterations 0
DICPCG:  Solving for T, Initial residual = 2.74614e-12, Final residual = 2.74614e-12, No Iterations 0
ExecutionTime = 0.44 s  ClockTime = 1 s

Time = 0.465

DICPCG:  Solving for T, Initial residual = 0.00301021, Final residual = 1.44446e-15, No Iterations 1
DICPCG:  Solving for T, Initial residual = 1.81107e-12, Final residual = 1.81107e-12, No Iterations 0
DICPCG:  Solving for T, Initial residual = 1.81107e-12, Final residual = 1.81107e-12, No Iterations 0
ExecutionTime = 0.45 s  ClockTime = 1 s

Time = 0.47

DICPCG:  Solving for T, Initial residual = 0.00297794, Final residual = 1.42941e-15, No Iterations 1
DICPCG:  Solving for T, Initial residual = 1.79181e-12, Final residual = 1.79181e-12, No Iterations 0
DICPCG:  Solving for T, Initial residual = 1.79181e-12, Final residual = 1.79181e-12, No Iterations 0
ExecutionTime = 0.45 s  ClockTime = 1 s

Time = 0.475

DICPCG:  Solving for T, Initial residual = 0.00294635, Final residual = 1.41414e-15, No Iterations 1
DICPCG:  Solving for T, Initial residual = 1.77295e-12, Final residual = 1.77295e-12, No Iterations 0
DICPCG:  Solving for T, Initial residual = 1.77295e-12, Final residual = 1.77295e-12, No Iterations 0
ExecutionTime = 0.46 s  ClockTime = 1 s

Time = 0.48

DICPCG:  Solving for T, Initial residual = 0.00291543, Final residual = 1.3993e-15, No Iterations 1
DICPCG:  Solving for T, Initial residual = 1.75448e-12, Final residual = 1.75448e-12, No Iterations 0
DICPCG:  Solving for T, Initial residual = 1.75448e-12, Final residual = 1.75448e-12, No Iterations 0
ExecutionTime = 0.46 s  ClockTime = 1 s

Time = 0.485

DICPCG:  Solving for T, Initial residual = 0.00288515, Final residual = 1.38476e-15, No Iterations 1
DICPCG:  Solving for T, Initial residual = 2.60459e-12, Final residual = 2.60459e-12, No Iterations 0
DICPCG:  Solving for T, Initial residual = 2.60459e-12, Final residual = 2.60459e-12, No Iterations 0
ExecutionTime = 0.47 s  ClockTime = 1 s

Time = 0.49

DICPCG:  Solving for T, Initial residual = 0.00285549, Final residual = 1.37032e-15, No Iterations 1
DICPCG:  Solving for T, Initial residual = 1.71867e-12, Final residual = 1.71867e-12, No Iterations 0
DICPCG:  Solving for T, Initial residual = 1.71867e-12, Final residual = 1.71867e-12, No Iterations 0
ExecutionTime = 0.47 s  ClockTime = 1 s

Time = 0.495

DICPCG:  Solving for T, Initial residual = 0.00282643, Final residual = 1.35679e-15, No Iterations 1
DICPCG:  Solving for T, Initial residual = 1.70131e-12, Final residual = 1.70131e-12, No Iterations 0
DICPCG:  Solving for T, Initial residual = 1.70131e-12, Final residual = 1.70131e-12, No Iterations 0
ExecutionTime = 0.47 s  ClockTime = 1 s

Time = 0.5

DICPCG:  Solving for T, Initial residual = 0.00279796, Final residual = 1.34292e-15, No Iterations 1
DICPCG:  Solving for T, Initial residual = 1.6843e-12, Final residual = 1.6843e-12, No Iterations 0
DICPCG:  Solving for T, Initial residual = 1.6843e-12, Final residual = 1.6843e-12, No Iterations 0
ExecutionTime = 0.48 s  ClockTime = 1 s

Time = 0.505

DICPCG:  Solving for T, Initial residual = 0.00277006, Final residual = 1.32973e-15, No Iterations 1
DICPCG:  Solving for T, Initial residual = 1.66763e-12, Final residual = 1.66763e-12, No Iterations 0
DICPCG:  Solving for T, Initial residual = 1.66763e-12, Final residual = 1.66763e-12, No Iterations 0
ExecutionTime = 0.48 s  ClockTime = 1 s

Time = 0.51

DICPCG:  Solving for T, Initial residual = 0.00274271, Final residual = 1.3164e-15, No Iterations 1
DICPCG:  Solving for T, Initial residual = 8.25639e-13, Final residual = 8.25639e-13, No Iterations 0
DICPCG:  Solving for T, Initial residual = 8.25639e-13, Final residual = 8.25639e-13, No Iterations 0
ExecutionTime = 0.49 s  ClockTime = 1 s

Time = 0.515

DICPCG:  Solving for T, Initial residual = 0.00271589, Final residual = 1.30343e-15, No Iterations 1
DICPCG:  Solving for T, Initial residual = 1.63525e-12, Final residual = 1.63525e-12, No Iterations 0
DICPCG:  Solving for T, Initial residual = 1.63525e-12, Final residual = 1.63525e-12, No Iterations 0
ExecutionTime = 0.49 s  ClockTime = 1 s

Time = 0.52

DICPCG:  Solving for T, Initial residual = 0.00268959, Final residual = 1.29081e-15, No Iterations 1
DICPCG:  Solving for T, Initial residual = 8.09761e-13, Final residual = 8.09761e-13, No Iterations 0
DICPCG:  Solving for T, Initial residual = 8.09761e-13, Final residual = 8.09761e-13, No Iterations 0
ExecutionTime = 0.49 s  ClockTime = 1 s

Time = 0.525

DICPCG:  Solving for T, Initial residual = 0.0026638, Final residual = 1.27843e-15, No Iterations 1
DICPCG:  Solving for T, Initial residual = 2.40615e-12, Final residual = 2.40615e-12, No Iterations 0
DICPCG:  Solving for T, Initial residual = 2.40615e-12, Final residual = 2.40615e-12, No Iterations 0
ExecutionTime = 0.5 s  ClockTime = 1 s

Time = 0.53

DICPCG:  Solving for T, Initial residual = 0.0026385, Final residual = 1.26639e-15, No Iterations 1
DICPCG:  Solving for T, Initial residual = 1.58897e-12, Final residual = 1.58897e-12, No Iterations 0
DICPCG:  Solving for T, Initial residual = 1.58897e-12, Final residual = 1.58897e-12, No Iterations 0
ExecutionTime = 0.51 s  ClockTime = 1 s

Time = 0.535

DICPCG:  Solving for T, Initial residual = 0.00261367, Final residual = 1.25466e-15, No Iterations 1
DICPCG:  Solving for T, Initial residual = 0, Final residual = 0, No Iterations 0
DICPCG:  Solving for T, Initial residual = 0, Final residual = 0, No Iterations 0
ExecutionTime = 0.51 s  ClockTime = 1 s

Time = 0.54

DICPCG:  Solving for T, Initial residual = 0.00258931, Final residual = 1.24296e-15, No Iterations 1
DICPCG:  Solving for T, Initial residual = 3.89886e-12, Final residual = 3.89886e-12, No Iterations 0
DICPCG:  Solving for T, Initial residual = 3.89886e-12, Final residual = 3.89886e-12, No Iterations 0
ExecutionTime = 0.51 s  ClockTime = 1 s

Time = 0.545

DICPCG:  Solving for T, Initial residual = 0.00256539, Final residual = 1.23111e-15, No Iterations 1
DICPCG:  Solving for T, Initial residual = 2.31785e-12, Final residual = 2.31785e-12, No Iterations 0
DICPCG:  Solving for T, Initial residual = 2.31785e-12, Final residual = 2.31785e-12, No Iterations 0
ExecutionTime = 0.53 s  ClockTime = 1 s

Time = 0.55

DICPCG:  Solving for T, Initial residual = 0.00254192, Final residual = 1.22003e-15, No Iterations 1
DICPCG:  Solving for T, Initial residual = 3.06238e-12, Final residual = 3.06238e-12, No Iterations 0
DICPCG:  Solving for T, Initial residual = 3.06238e-12, Final residual = 3.06238e-12, No Iterations 0
ExecutionTime = 0.53 s  ClockTime = 1 s

Time = 0.555

DICPCG:  Solving for T, Initial residual = 0.00251887, Final residual = 1.20888e-15, No Iterations 1
DICPCG:  Solving for T, Initial residual = 7.58697e-13, Final residual = 7.58697e-13, No Iterations 0
DICPCG:  Solving for T, Initial residual = 7.58697e-13, Final residual = 7.58697e-13, No Iterations 0
ExecutionTime = 0.54 s  ClockTime = 1 s

Time = 0.56

DICPCG:  Solving for T, Initial residual = 0.00249623, Final residual = 1.19792e-15, No Iterations 1
DICPCG:  Solving for T, Initial residual = 1.50385e-12, Final residual = 1.50385e-12, No Iterations 0
DICPCG:  Solving for T, Initial residual = 1.50385e-12, Final residual = 1.50385e-12, No Iterations 0
ExecutionTime = 0.54 s  ClockTime = 1 s

Time = 0.565

DICPCG:  Solving for T, Initial residual = 0.002474, Final residual = 1.18734e-15, No Iterations 1
DICPCG:  Solving for T, Initial residual = 7.45269e-13, Final residual = 7.45269e-13, No Iterations 0
DICPCG:  Solving for T, Initial residual = 7.45269e-13, Final residual = 7.45269e-13, No Iterations 0
ExecutionTime = 0.54 s  ClockTime = 1 s

Time = 0.57

DICPCG:  Solving for T, Initial residual = 0.00245216, Final residual = 1.17695e-15, No Iterations 1
DICPCG:  Solving for T, Initial residual = 0, Final residual = 0, No Iterations 0
DICPCG:  Solving for T, Initial residual = 0, Final residual = 0, No Iterations 0
ExecutionTime = 0.55 s  ClockTime = 1 s

Time = 0.575

DICPCG:  Solving for T, Initial residual = 0.0024307, Final residual = 1.16683e-15, No Iterations 1
DICPCG:  Solving for T, Initial residual = 2.19693e-12, Final residual = 2.19693e-12, No Iterations 0
DICPCG:  Solving for T, Initial residual = 2.19693e-12, Final residual = 2.19693e-12, No Iterations 0
ExecutionTime = 0.55 s  ClockTime = 1 s

Time = 0.58

DICPCG:  Solving for T, Initial residual = 0.00240961, Final residual = 1.15662e-15, No Iterations 1
DICPCG:  Solving for T, Initial residual = 1.45199e-12, Final residual = 1.45199e-12, No Iterations 0
DICPCG:  Solving for T, Initial residual = 1.45199e-12, Final residual = 1.45199e-12, No Iterations 0
ExecutionTime = 0.56 s  ClockTime = 1 s

Time = 0.585

DICPCG:  Solving for T, Initial residual = 0.00238889, Final residual = 1.1465e-15, No Iterations 1
DICPCG:  Solving for T, Initial residual = 2.15937e-12, Final residual = 2.15937e-12, No Iterations 0
DICPCG:  Solving for T, Initial residual = 2.15937e-12, Final residual = 2.15937e-12, No Iterations 0
ExecutionTime = 0.56 s  ClockTime = 1 s

Time = 0.59

DICPCG:  Solving for T, Initial residual = 0.00236852, Final residual = 1.13672e-15, No Iterations 1
DICPCG:  Solving for T, Initial residual = 2.14107e-12, Final residual = 2.14107e-12, No Iterations 0
DICPCG:  Solving for T, Initial residual = 2.14107e-12, Final residual = 2.14107e-12, No Iterations 0
ExecutionTime = 0.56 s  ClockTime = 1 s

Time = 0.595

DICPCG:  Solving for T, Initial residual = 0.0023485, Final residual = 1.12694e-15, No Iterations 1
DICPCG:  Solving for T, Initial residual = 2.83078e-12, Final residual = 2.83078e-12, No Iterations 0
DICPCG:  Solving for T, Initial residual = 2.83078e-12, Final residual = 2.83078e-12, No Iterations 0
ExecutionTime = 0.57 s  ClockTime = 1 s

Time = 0.6

DICPCG:  Solving for T, Initial residual = 0.00232881, Final residual = 1.11792e-15, No Iterations 1
DICPCG:  Solving for T, Initial residual = 7.01797e-13, Final residual = 7.01797e-13, No Iterations 0
DICPCG:  Solving for T, Initial residual = 7.01797e-13, Final residual = 7.01797e-13, No Iterations 0
ExecutionTime = 0.57 s  ClockTime = 1 s

Time = 0.605

DICPCG:  Solving for T, Initial residual = 0.00230944, Final residual = 1.10846e-15, No Iterations 1
DICPCG:  Solving for T, Initial residual = 2.08799e-12, Final residual = 2.08799e-12, No Iterations 0
DICPCG:  Solving for T, Initial residual = 2.08799e-12, Final residual = 2.08799e-12, No Iterations 0
ExecutionTime = 0.57 s  ClockTime = 1 s

Time = 0.61

DICPCG:  Solving for T, Initial residual = 0.0022904, Final residual = 1.09932e-15, No Iterations 1
DICPCG:  Solving for T, Initial residual = 2.07088e-12, Final residual = 2.07088e-12, No Iterations 0
DICPCG:  Solving for T, Initial residual = 2.07088e-12, Final residual = 2.07088e-12, No Iterations 0
ExecutionTime = 0.58 s  ClockTime = 1 s

Time = 0.615

DICPCG:  Solving for T, Initial residual = 0.00227167, Final residual = 1.09033e-15, No Iterations 1
DICPCG:  Solving for T, Initial residual = 6.8468e-13, Final residual = 6.8468e-13, No Iterations 0
DICPCG:  Solving for T, Initial residual = 6.8468e-13, Final residual = 6.8468e-13, No Iterations 0
ExecutionTime = 0.59 s  ClockTime = 1 s

Time = 0.62

DICPCG:  Solving for T, Initial residual = 0.00225324, Final residual = 1.08148e-15, No Iterations 1
DICPCG:  Solving for T, Initial residual = 2.03748e-12, Final residual = 2.03748e-12, No Iterations 0
DICPCG:  Solving for T, Initial residual = 2.03748e-12, Final residual = 2.03748e-12, No Iterations 0
ExecutionTime = 0.6 s  ClockTime = 1 s

Time = 0.625

DICPCG:  Solving for T, Initial residual = 0.00223511, Final residual = 1.07254e-15, No Iterations 1
DICPCG:  Solving for T, Initial residual = 6.73726e-13, Final residual = 6.73726e-13, No Iterations 0
DICPCG:  Solving for T, Initial residual = 6.73726e-13, Final residual = 6.73726e-13, No Iterations 0
ExecutionTime = 0.6 s  ClockTime = 1 s

Time = 0.63

DICPCG:  Solving for T, Initial residual = 0.00221727, Final residual = 1.06414e-15, No Iterations 1
DICPCG:  Solving for T, Initial residual = 2.00514e-12, Final residual = 2.00514e-12, No Iterations 0
DICPCG:  Solving for T, Initial residual = 2.00514e-12, Final residual = 2.00514e-12, No Iterations 0
ExecutionTime = 0.61 s  ClockTime = 1 s

Time = 0.635

DICPCG:  Solving for T, Initial residual = 0.00219971, Final residual = 1.05571e-15, No Iterations 1
DICPCG:  Solving for T, Initial residual = 0, Final residual = 0, No Iterations 0
DICPCG:  Solving for T, Initial residual = 0, Final residual = 0, No Iterations 0
ExecutionTime = 0.61 s  ClockTime = 1 s

Time = 0.64

DICPCG:  Solving for T, Initial residual = 0.00218243, Final residual = 1.04757e-15, No Iterations 1
DICPCG:  Solving for T, Initial residual = 1.97381e-12, Final residual = 1.97381e-12, No Iterations 0
DICPCG:  Solving for T, Initial residual = 1.97381e-12, Final residual = 1.97381e-12, No Iterations 0
ExecutionTime = 0.61 s  ClockTime = 1 s

Time = 0.645

DICPCG:  Solving for T, Initial residual = 0.00216541, Final residual = 1.03933e-15, No Iterations 1
DICPCG:  Solving for T, Initial residual = 1.95851e-12, Final residual = 1.95851e-12, No Iterations 0
DICPCG:  Solving for T, Initial residual = 1.95851e-12, Final residual = 1.95851e-12, No Iterations 0
ExecutionTime = 0.61 s  ClockTime = 1 s

Time = 0.65

DICPCG:  Solving for T, Initial residual = 0.00214866, Final residual = 1.03129e-15, No Iterations 1
DICPCG:  Solving for T, Initial residual = 1.29563e-12, Final residual = 1.29563e-12, No Iterations 0
DICPCG:  Solving for T, Initial residual = 1.29563e-12, Final residual = 1.29563e-12, No Iterations 0
ExecutionTime = 0.62 s  ClockTime = 1 s

Time = 0.655

DICPCG:  Solving for T, Initial residual = 0.00213217, Final residual = 1.02322e-15, No Iterations 1
DICPCG:  Solving for T, Initial residual = 1.92861e-12, Final residual = 1.92861e-12, No Iterations 0
DICPCG:  Solving for T, Initial residual = 1.92861e-12, Final residual = 1.92861e-12, No Iterations 0
ExecutionTime = 0.62 s  ClockTime = 1 s

Time = 0.66

DICPCG:  Solving for T, Initial residual = 0.00211593, Final residual = 1.01535e-15, No Iterations 1
DICPCG:  Solving for T, Initial residual = 1.276e-12, Final residual = 1.276e-12, No Iterations 0
DICPCG:  Solving for T, Initial residual = 1.276e-12, Final residual = 1.276e-12, No Iterations 0
ExecutionTime = 0.63 s  ClockTime = 1 s

Time = 0.665

DICPCG:  Solving for T, Initial residual = 0.00209993, Final residual = 1.00783e-15, No Iterations 1
DICPCG:  Solving for T, Initial residual = 2.53281e-12, Final residual = 2.53281e-12, No Iterations 0
DICPCG:  Solving for T, Initial residual = 2.53281e-12, Final residual = 2.53281e-12, No Iterations 0
ExecutionTime = 0.64 s  ClockTime = 1 s

Time = 0.67

DICPCG:  Solving for T, Initial residual = 0.00208418, Final residual = 1.00049e-15, No Iterations 1
DICPCG:  Solving for T, Initial residual = 1.25695e-12, Final residual = 1.25695e-12, No Iterations 0
DICPCG:  Solving for T, Initial residual = 1.25695e-12, Final residual = 1.25695e-12, No Iterations 0
ExecutionTime = 0.64 s  ClockTime = 1 s

Time = 0.675

DICPCG:  Solving for T, Initial residual = 0.00206866, Final residual = 9.92741e-16, No Iterations 1
DICPCG:  Solving for T, Initial residual = 3.74293e-12, Final residual = 3.74293e-12, No Iterations 0
DICPCG:  Solving for T, Initial residual = 3.74293e-12, Final residual = 3.74293e-12, No Iterations 0
ExecutionTime = 0.65 s  ClockTime = 1 s

Time = 0.68

DICPCG:  Solving for T, Initial residual = 0.00205336, Final residual = 9.85403e-16, No Iterations 1
DICPCG:  Solving for T, Initial residual = 6.19235e-13, Final residual = 6.19235e-13, No Iterations 0
DICPCG:  Solving for T, Initial residual = 6.19235e-13, Final residual = 6.19235e-13, No Iterations 0
ExecutionTime = 0.65 s  ClockTime = 1 s

Time = 0.685

DICPCG:  Solving for T, Initial residual = 0.0020383, Final residual = 9.78172e-16, No Iterations 1
DICPCG:  Solving for T, Initial residual = 1.84415e-12, Final residual = 1.84415e-12, No Iterations 0
DICPCG:  Solving for T, Initial residual = 1.84415e-12, Final residual = 1.84415e-12, No Iterations 0
ExecutionTime = 0.66 s  ClockTime = 1 s

Time = 0.69

DICPCG:  Solving for T, Initial residual = 0.00202345, Final residual = 9.71193e-16, No Iterations 1
DICPCG:  Solving for T, Initial residual = 1.22052e-12, Final residual = 1.22052e-12, No Iterations 0
DICPCG:  Solving for T, Initial residual = 1.22052e-12, Final residual = 1.22052e-12, No Iterations 0
ExecutionTime = 0.66 s  ClockTime = 1 s

Time = 0.695

DICPCG:  Solving for T, Initial residual = 0.00200881, Final residual = 9.64025e-16, No Iterations 1
DICPCG:  Solving for T, Initial residual = 1.21174e-12, Final residual = 1.21174e-12, No Iterations 0
DICPCG:  Solving for T, Initial residual = 1.21174e-12, Final residual = 1.21174e-12, No Iterations 0
ExecutionTime = 0.67 s  ClockTime = 1 s

Time = 0.7

DICPCG:  Solving for T, Initial residual = 0.00199439, Final residual = 9.57176e-16, No Iterations 1
DICPCG:  Solving for T, Initial residual = 1.80463e-12, Final residual = 1.80463e-12, No Iterations 0
DICPCG:  Solving for T, Initial residual = 1.80463e-12, Final residual = 1.80463e-12, No Iterations 0
ExecutionTime = 0.67 s  ClockTime = 1 s

Time = 0.705

DICPCG:  Solving for T, Initial residual = 0.00198017, Final residual = 9.50496e-16, No Iterations 1
DICPCG:  Solving for T, Initial residual = 5.97278e-13, Final residual = 5.97278e-13, No Iterations 0
DICPCG:  Solving for T, Initial residual = 5.97278e-13, Final residual = 5.97278e-13, No Iterations 0
ExecutionTime = 0.68 s  ClockTime = 1 s

Time = 0.71

DICPCG:  Solving for T, Initial residual = 0.00196616, Final residual = 9.43555e-16, No Iterations 1
DICPCG:  Solving for T, Initial residual = 2.37229e-12, Final residual = 2.37229e-12, No Iterations 0
DICPCG:  Solving for T, Initial residual = 2.37229e-12, Final residual = 2.37229e-12, No Iterations 0
ExecutionTime = 0.68 s  ClockTime = 1 s

Time = 0.715

DICPCG:  Solving for T, Initial residual = 0.00195234, Final residual = 9.37064e-16, No Iterations 1
DICPCG:  Solving for T, Initial residual = 0, Final residual = 0, No Iterations 0
DICPCG:  Solving for T, Initial residual = 0, Final residual = 0, No Iterations 0
ExecutionTime = 0.69 s  ClockTime = 1 s

Time = 0.72

DICPCG:  Solving for T, Initial residual = 0.00193871, Final residual = 9.30524e-16, No Iterations 1
DICPCG:  Solving for T, Initial residual = 1.7545e-12, Final residual = 1.7545e-12, No Iterations 0
DICPCG:  Solving for T, Initial residual = 1.7545e-12, Final residual = 1.7545e-12, No Iterations 0
ExecutionTime = 0.7 s  ClockTime = 1 s

Time = 0.725

DICPCG:  Solving for T, Initial residual = 0.00192527, Final residual = 9.24006e-16, No Iterations 1
DICPCG:  Solving for T, Initial residual = 1.1616e-12, Final residual = 1.1616e-12, No Iterations 0
DICPCG:  Solving for T, Initial residual = 1.1616e-12, Final residual = 1.1616e-12, No Iterations 0
ExecutionTime = 0.7 s  ClockTime = 1 s

Time = 0.73

DICPCG:  Solving for T, Initial residual = 0.00191202, Final residual = 9.17645e-16, No Iterations 1
DICPCG:  Solving for T, Initial residual = 5.76824e-13, Final residual = 5.76824e-13, No Iterations 0
DICPCG:  Solving for T, Initial residual = 5.76824e-13, Final residual = 5.76824e-13, No Iterations 0
ExecutionTime = 0.71 s  ClockTime = 1 s

Time = 0.735

DICPCG:  Solving for T, Initial residual = 0.00189895, Final residual = 9.11441e-16, No Iterations 1
DICPCG:  Solving for T, Initial residual = 1.1458e-12, Final residual = 1.1458e-12, No Iterations 0
DICPCG:  Solving for T, Initial residual = 1.1458e-12, Final residual = 1.1458e-12, No Iterations 0
ExecutionTime = 0.72 s  ClockTime = 1 s

Time = 0.74

DICPCG:  Solving for T, Initial residual = 0.00188606, Final residual = 9.05253e-16, No Iterations 1
DICPCG:  Solving for T, Initial residual = 5.69029e-13, Final residual = 5.69029e-13, No Iterations 0
DICPCG:  Solving for T, Initial residual = 5.69029e-13, Final residual = 5.69029e-13, No Iterations 0
ExecutionTime = 0.72 s  ClockTime = 1 s

Time = 0.745

DICPCG:  Solving for T, Initial residual = 0.00187334, Final residual = 8.99148e-16, No Iterations 1
DICPCG:  Solving for T, Initial residual = 3.39126e-12, Final residual = 3.39126e-12, No Iterations 0
DICPCG:  Solving for T, Initial residual = 3.39126e-12, Final residual = 3.39126e-12, No Iterations 0
ExecutionTime = 0.73 s  ClockTime = 1 s

Time = 0.75

DICPCG:  Solving for T, Initial residual = 0.00186079, Final residual = 8.93259e-16, No Iterations 1
DICPCG:  Solving for T, Initial residual = 5.61443e-13, Final residual = 5.61443e-13, No Iterations 0
DICPCG:  Solving for T, Initial residual = 5.61443e-13, Final residual = 5.61443e-13, No Iterations 0
ExecutionTime = 0.74 s  ClockTime = 1 s

Time = 0.755

DICPCG:  Solving for T, Initial residual = 0.0018484, Final residual = 8.87182e-16, No Iterations 1
DICPCG:  Solving for T, Initial residual = 1.67317e-12, Final residual = 1.67317e-12, No Iterations 0
DICPCG:  Solving for T, Initial residual = 1.67317e-12, Final residual = 1.67317e-12, No Iterations 0
ExecutionTime = 0.74 s  ClockTime = 1 s

Time = 0.76

DICPCG:  Solving for T, Initial residual = 0.00183619, Final residual = 8.81317e-16, No Iterations 1
DICPCG:  Solving for T, Initial residual = 1.66217e-12, Final residual = 1.66217e-12, No Iterations 0
DICPCG:  Solving for T, Initial residual = 1.66217e-12, Final residual = 1.66217e-12, No Iterations 0
ExecutionTime = 0.74 s  ClockTime = 1 s

Time = 0.765

DICPCG:  Solving for T, Initial residual = 0.00182413, Final residual = 8.75596e-16, No Iterations 1
DICPCG:  Solving for T, Initial residual = 1.10087e-12, Final residual = 1.10087e-12, No Iterations 0
DICPCG:  Solving for T, Initial residual = 1.10087e-12, Final residual = 1.10087e-12, No Iterations 0
ExecutionTime = 0.75 s  ClockTime = 1 s

Time = 0.77

DICPCG:  Solving for T, Initial residual = 0.00181223, Final residual = 8.69818e-16, No Iterations 1
DICPCG:  Solving for T, Initial residual = 1.64058e-12, Final residual = 1.64058e-12, No Iterations 0
DICPCG:  Solving for T, Initial residual = 1.64058e-12, Final residual = 1.64058e-12, No Iterations 0
ExecutionTime = 0.75 s  ClockTime = 1 s

Time = 0.775

DICPCG:  Solving for T, Initial residual = 0.00180048, Final residual = 8.6418e-16, No Iterations 1
DICPCG:  Solving for T, Initial residual = 1.08666e-12, Final residual = 1.08666e-12, No Iterations 0
DICPCG:  Solving for T, Initial residual = 1.08666e-12, Final residual = 1.08666e-12, No Iterations 0
ExecutionTime = 0.75 s  ClockTime = 1 s

Time = 0.78

DICPCG:  Solving for T, Initial residual = 0.00178888, Final residual = 8.58615e-16, No Iterations 1
DICPCG:  Solving for T, Initial residual = 1.61955e-12, Final residual = 1.61955e-12, No Iterations 0
DICPCG:  Solving for T, Initial residual = 1.61955e-12, Final residual = 1.61955e-12, No Iterations 0
ExecutionTime = 0.76 s  ClockTime = 1 s

Time = 0.785

DICPCG:  Solving for T, Initial residual = 0.00177744, Final residual = 8.53121e-16, No Iterations 1
DICPCG:  Solving for T, Initial residual = 5.36411e-13, Final residual = 5.36411e-13, No Iterations 0
DICPCG:  Solving for T, Initial residual = 5.36411e-13, Final residual = 5.36411e-13, No Iterations 0
ExecutionTime = 0.76 s  ClockTime = 1 s

Time = 0.79

DICPCG:  Solving for T, Initial residual = 0.00176614, Final residual = 8.47697e-16, No Iterations 1
DICPCG:  Solving for T, Initial residual = 1.59905e-12, Final residual = 1.59905e-12, No Iterations 0
DICPCG:  Solving for T, Initial residual = 1.59905e-12, Final residual = 1.59905e-12, No Iterations 0
ExecutionTime = 0.77 s  ClockTime = 1 s

Time = 0.795

DICPCG:  Solving for T, Initial residual = 0.00175498, Final residual = 8.42342e-16, No Iterations 1
DICPCG:  Solving for T, Initial residual = 1.58899e-12, Final residual = 1.58899e-12, No Iterations 0
DICPCG:  Solving for T, Initial residual = 1.58899e-12, Final residual = 1.58899e-12, No Iterations 0
ExecutionTime = 0.77 s  ClockTime = 1 s

Time = 0.8

DICPCG:  Solving for T, Initial residual = 0.00174396, Final residual = 8.37053e-16, No Iterations 1
DICPCG:  Solving for T, Initial residual = 1.05271e-12, Final residual = 1.05271e-12, No Iterations 0
DICPCG:  Solving for T, Initial residual = 1.05271e-12, Final residual = 1.05271e-12, No Iterations 0
ExecutionTime = 0.78 s  ClockTime = 1 s

Time = 0.805

DICPCG:  Solving for T, Initial residual = 0.00173308, Final residual = 8.31706e-16, No Iterations 1
DICPCG:  Solving for T, Initial residual = 2.09234e-12, Final residual = 2.09234e-12, No Iterations 0
DICPCG:  Solving for T, Initial residual = 2.09234e-12, Final residual = 2.09234e-12, No Iterations 0
ExecutionTime = 0.79 s  ClockTime = 1 s

Time = 0.81

DICPCG:  Solving for T, Initial residual = 0.00172233, Final residual = 8.26673e-16, No Iterations 1
DICPCG:  Solving for T, Initial residual = 1.55957e-12, Final residual = 1.55957e-12, No Iterations 0
DICPCG:  Solving for T, Initial residual = 1.55957e-12, Final residual = 1.55957e-12, No Iterations 0
ExecutionTime = 0.8 s  ClockTime = 1 s

Time = 0.815

DICPCG:  Solving for T, Initial residual = 0.00171172, Final residual = 8.21579e-16, No Iterations 1
DICPCG:  Solving for T, Initial residual = 2.58334e-12, Final residual = 2.58334e-12, No Iterations 0
DICPCG:  Solving for T, Initial residual = 2.58334e-12, Final residual = 2.58334e-12, No Iterations 0
ExecutionTime = 0.81 s  ClockTime = 1 s

Time = 0.82

DICPCG:  Solving for T, Initial residual = 0.00170123, Final residual = 8.16363e-16, No Iterations 1
DICPCG:  Solving for T, Initial residual = 1.54055e-12, Final residual = 1.54055e-12, No Iterations 0
DICPCG:  Solving for T, Initial residual = 1.54055e-12, Final residual = 1.54055e-12, No Iterations 0
ExecutionTime = 0.81 s  ClockTime = 1 s

Time = 0.825

DICPCG:  Solving for T, Initial residual = 0.00169088, Final residual = 8.11578e-16, No Iterations 1
DICPCG:  Solving for T, Initial residual = 1.53121e-12, Final residual = 1.53121e-12, No Iterations 0
DICPCG:  Solving for T, Initial residual = 1.53121e-12, Final residual = 1.53121e-12, No Iterations 0
ExecutionTime = 0.81 s  ClockTime = 1 s

Time = 0.83

DICPCG:  Solving for T, Initial residual = 0.00168065, Final residual = 8.06667e-16, No Iterations 1
DICPCG:  Solving for T, Initial residual = 1.52199e-12, Final residual = 1.52199e-12, No Iterations 0
DICPCG:  Solving for T, Initial residual = 1.52199e-12, Final residual = 1.52199e-12, No Iterations 0
ExecutionTime = 0.82 s  ClockTime = 1 s

Time = 0.835

DICPCG:  Solving for T, Initial residual = 0.00167054, Final residual = 8.01877e-16, No Iterations 1
DICPCG:  Solving for T, Initial residual = 2.01717e-12, Final residual = 2.01717e-12, No Iterations 0
DICPCG:  Solving for T, Initial residual = 2.01717e-12, Final residual = 2.01717e-12, No Iterations 0
ExecutionTime = 0.83 s  ClockTime = 1 s

Time = 0.84

DICPCG:  Solving for T, Initial residual = 0.00166055, Final residual = 7.96963e-16, No Iterations 1
DICPCG:  Solving for T, Initial residual = 1.50387e-12, Final residual = 1.50387e-12, No Iterations 0
DICPCG:  Solving for T, Initial residual = 1.50387e-12, Final residual = 1.50387e-12, No Iterations 0
ExecutionTime = 0.83 s  ClockTime = 1 s

Time = 0.845

DICPCG:  Solving for T, Initial residual = 0.00165069, Final residual = 7.92287e-16, No Iterations 1
DICPCG:  Solving for T, Initial residual = 9.9665e-13, Final residual = 9.9665e-13, No Iterations 0
DICPCG:  Solving for T, Initial residual = 9.9665e-13, Final residual = 9.9665e-13, No Iterations 0
ExecutionTime = 0.84 s  ClockTime = 1 s

Time = 0.85

DICPCG:  Solving for T, Initial residual = 0.00164093, Final residual = 7.87607e-16, No Iterations 1
DICPCG:  Solving for T, Initial residual = 9.90787e-13, Final residual = 9.90787e-13, No Iterations 0
DICPCG:  Solving for T, Initial residual = 9.90787e-13, Final residual = 9.90787e-13, No Iterations 0
ExecutionTime = 0.84 s  ClockTime = 1 s

Time = 0.855

DICPCG:  Solving for T, Initial residual = 0.0016313, Final residual = 7.82923e-16, No Iterations 1
DICPCG:  Solving for T, Initial residual = 4.92497e-13, Final residual = 4.92497e-13, No Iterations 0
DICPCG:  Solving for T, Initial residual = 4.92497e-13, Final residual = 4.92497e-13, No Iterations 0
ExecutionTime = 0.85 s  ClockTime = 1 s

Time = 0.86

DICPCG:  Solving for T, Initial residual = 0.00162177, Final residual = 7.78528e-16, No Iterations 1
DICPCG:  Solving for T, Initial residual = 2.44817e-12, Final residual = 2.44817e-12, No Iterations 0
DICPCG:  Solving for T, Initial residual = 2.44817e-12, Final residual = 2.44817e-12, No Iterations 0
ExecutionTime = 0.86 s  ClockTime = 1 s

Time = 0.865

DICPCG:  Solving for T, Initial residual = 0.00161236, Final residual = 7.73892e-16, No Iterations 1
DICPCG:  Solving for T, Initial residual = 4.86803e-13, Final residual = 4.86803e-13, No Iterations 0
DICPCG:  Solving for T, Initial residual = 4.86803e-13, Final residual = 4.86803e-13, No Iterations 0
ExecutionTime = 0.87 s  ClockTime = 1 s

Time = 0.87

DICPCG:  Solving for T, Initial residual = 0.00160305, Final residual = 7.69426e-16, No Iterations 1
DICPCG:  Solving for T, Initial residual = 9.68012e-13, Final residual = 9.68012e-13, No Iterations 0
DICPCG:  Solving for T, Initial residual = 9.68012e-13, Final residual = 9.68012e-13, No Iterations 0
ExecutionTime = 0.87 s  ClockTime = 1 s

Time = 0.875

DICPCG:  Solving for T, Initial residual = 0.00159385, Final residual = 7.65011e-16, No Iterations 1
DICPCG:  Solving for T, Initial residual = 4.8124e-13, Final residual = 4.8124e-13, No Iterations 0
DICPCG:  Solving for T, Initial residual = 4.8124e-13, Final residual = 4.8124e-13, No Iterations 0
ExecutionTime = 0.87 s  ClockTime = 1 s

Time = 0.88

DICPCG:  Solving for T, Initial residual = 0.00158476, Final residual = 7.6059e-16, No Iterations 1
DICPCG:  Solving for T, Initial residual = 9.57012e-13, Final residual = 9.57012e-13, No Iterations 0
DICPCG:  Solving for T, Initial residual = 9.57012e-13, Final residual = 9.57012e-13, No Iterations 0
ExecutionTime = 0.88 s  ClockTime = 1 s

Time = 0.885

DICPCG:  Solving for T, Initial residual = 0.00157577, Final residual = 7.56332e-16, No Iterations 1
DICPCG:  Solving for T, Initial residual = 1.42741e-12, Final residual = 1.42741e-12, No Iterations 0
DICPCG:  Solving for T, Initial residual = 1.42741e-12, Final residual = 1.42741e-12, No Iterations 0
ExecutionTime = 0.88 s  ClockTime = 1 s

Time = 0.89

DICPCG:  Solving for T, Initial residual = 0.00156688, Final residual = 7.52009e-16, No Iterations 1
DICPCG:  Solving for T, Initial residual = 1.41939e-12, Final residual = 1.41939e-12, No Iterations 0
DICPCG:  Solving for T, Initial residual = 1.41939e-12, Final residual = 1.41939e-12, No Iterations 0
ExecutionTime = 0.88 s  ClockTime = 1 s

Time = 0.895

DICPCG:  Solving for T, Initial residual = 0.00155809, Final residual = 7.47735e-16, No Iterations 1
DICPCG:  Solving for T, Initial residual = 1.41146e-12, Final residual = 1.41146e-12, No Iterations 0
DICPCG:  Solving for T, Initial residual = 1.41146e-12, Final residual = 1.41146e-12, No Iterations 0
ExecutionTime = 0.89 s  ClockTime = 1 s

Time = 0.9

DICPCG:  Solving for T, Initial residual = 0.0015494, Final residual = 7.43676e-16, No Iterations 1
DICPCG:  Solving for T, Initial residual = 9.35746e-13, Final residual = 9.35746e-13, No Iterations 0
DICPCG:  Solving for T, Initial residual = 9.35746e-13, Final residual = 9.35746e-13, No Iterations 0
ExecutionTime = 0.89 s  ClockTime = 1 s

Time = 0.905

DICPCG:  Solving for T, Initial residual = 0.00154081, Final residual = 7.39551e-16, No Iterations 1
DICPCG:  Solving for T, Initial residual = 1.39587e-12, Final residual = 1.39587e-12, No Iterations 0
DICPCG:  Solving for T, Initial residual = 1.39587e-12, Final residual = 1.39587e-12, No Iterations 0
ExecutionTime = 0.9 s  ClockTime = 1 s

Time = 0.91

DICPCG:  Solving for T, Initial residual = 0.00153231, Final residual = 7.35472e-16, No Iterations 1
DICPCG:  Solving for T, Initial residual = 9.25464e-13, Final residual = 9.25464e-13, No Iterations 0
DICPCG:  Solving for T, Initial residual = 9.25464e-13, Final residual = 9.25464e-13, No Iterations 0
ExecutionTime = 0.9 s  ClockTime = 1 s

Time = 0.915

DICPCG:  Solving for T, Initial residual = 0.0015239, Final residual = 7.31437e-16, No Iterations 1
DICPCG:  Solving for T, Initial residual = 1.84081e-12, Final residual = 1.84081e-12, No Iterations 0
DICPCG:  Solving for T, Initial residual = 1.84081e-12, Final residual = 1.84081e-12, No Iterations 0
ExecutionTime = 0.91 s  ClockTime = 1 s

Time = 0.92

DICPCG:  Solving for T, Initial residual = 0.00151559, Final residual = 7.27446e-16, No Iterations 1
DICPCG:  Solving for T, Initial residual = 1.37311e-12, Final residual = 1.37311e-12, No Iterations 0
DICPCG:  Solving for T, Initial residual = 1.37311e-12, Final residual = 1.37311e-12, No Iterations 0
ExecutionTime = 0.91 s  ClockTime = 1 s

Time = 0.925

DICPCG:  Solving for T, Initial residual = 0.00150736, Final residual = 7.23554e-16, No Iterations 1
DICPCG:  Solving for T, Initial residual = 4.55229e-13, Final residual = 4.55229e-13, No Iterations 0
DICPCG:  Solving for T, Initial residual = 4.55229e-13, Final residual = 4.55229e-13, No Iterations 0
ExecutionTime = 0.92 s  ClockTime = 1 s

Time = 0.93

DICPCG:  Solving for T, Initial residual = 0.00149923, Final residual = 7.19594e-16, No Iterations 1
DICPCG:  Solving for T, Initial residual = 1.35834e-12, Final residual = 1.35834e-12, No Iterations 0
DICPCG:  Solving for T, Initial residual = 1.35834e-12, Final residual = 1.35834e-12, No Iterations 0
ExecutionTime = 0.93 s  ClockTime = 1 s

Time = 0.935

DICPCG:  Solving for T, Initial residual = 0.00149118, Final residual = 7.15731e-16, No Iterations 1
DICPCG:  Solving for T, Initial residual = 4.5036e-13, Final residual = 4.5036e-13, No Iterations 0
DICPCG:  Solving for T, Initial residual = 4.5036e-13, Final residual = 4.5036e-13, No Iterations 0
ExecutionTime = 0.94 s  ClockTime = 1 s

Time = 0.94

DICPCG:  Solving for T, Initial residual = 0.00148321, Final residual = 7.11856e-16, No Iterations 1
DICPCG:  Solving for T, Initial residual = 1.34389e-12, Final residual = 1.34389e-12, No Iterations 0
DICPCG:  Solving for T, Initial residual = 1.34389e-12, Final residual = 1.34389e-12, No Iterations 0
ExecutionTime = 0.95 s  ClockTime = 1 s

Time = 0.945

DICPCG:  Solving for T, Initial residual = 0.00147534, Final residual = 7.08076e-16, No Iterations 1
DICPCG:  Solving for T, Initial residual = 1.33678e-12, Final residual = 1.33678e-12, No Iterations 0
DICPCG:  Solving for T, Initial residual = 1.33678e-12, Final residual = 1.33678e-12, No Iterations 0
ExecutionTime = 0.96 s  ClockTime = 1 s

Time = 0.95

DICPCG:  Solving for T, Initial residual = 0.00146754, Final residual = 7.04388e-16, No Iterations 1
DICPCG:  Solving for T, Initial residual = 8.86499e-13, Final residual = 8.86499e-13, No Iterations 0
DICPCG:  Solving for T, Initial residual = 8.86499e-13, Final residual = 8.86499e-13, No Iterations 0
ExecutionTime = 0.96 s  ClockTime = 1 s

Time = 0.955

DICPCG:  Solving for T, Initial residual = 0.00145983, Final residual = 7.00739e-16, No Iterations 1
DICPCG:  Solving for T, Initial residual = 8.81858e-13, Final residual = 8.81858e-13, No Iterations 0
DICPCG:  Solving for T, Initial residual = 8.81858e-13, Final residual = 8.81858e-13, No Iterations 0
ExecutionTime = 0.97 s  ClockTime = 1 s

Time = 0.96

DICPCG:  Solving for T, Initial residual = 0.0014522, Final residual = 6.96918e-16, No Iterations 1
DICPCG:  Solving for T, Initial residual = 4.38633e-13, Final residual = 4.38633e-13, No Iterations 0
DICPCG:  Solving for T, Initial residual = 4.38633e-13, Final residual = 4.38633e-13, No Iterations 0
ExecutionTime = 0.97 s  ClockTime = 1 s

Time = 0.965

DICPCG:  Solving for T, Initial residual = 0.00144464, Final residual = 6.93398e-16, No Iterations 1
DICPCG:  Solving for T, Initial residual = 1.30908e-12, Final residual = 1.30908e-12, No Iterations 0
DICPCG:  Solving for T, Initial residual = 1.30908e-12, Final residual = 1.30908e-12, No Iterations 0
ExecutionTime = 0.98 s  ClockTime = 1 s

Time = 0.97

DICPCG:  Solving for T, Initial residual = 0.00143717, Final residual = 6.89811e-16, No Iterations 1
DICPCG:  Solving for T, Initial residual = 8.68222e-13, Final residual = 8.68222e-13, No Iterations 0
DICPCG:  Solving for T, Initial residual = 8.68222e-13, Final residual = 8.68222e-13, No Iterations 0
ExecutionTime = 0.98 s  ClockTime = 1 s

Time = 0.975

DICPCG:  Solving for T, Initial residual = 0.00142977, Final residual = 6.8626e-16, No Iterations 1
DICPCG:  Solving for T, Initial residual = 1.29565e-12, Final residual = 1.29565e-12, No Iterations 0
DICPCG:  Solving for T, Initial residual = 1.29565e-12, Final residual = 1.29565e-12, No Iterations 0
ExecutionTime = 0.98 s  ClockTime = 1 s

Time = 0.98

DICPCG:  Solving for T, Initial residual = 0.00142245, Final residual = 6.82798e-16, No Iterations 1
DICPCG:  Solving for T, Initial residual = 1.28904e-12, Final residual = 1.28904e-12, No Iterations 0
DICPCG:  Solving for T, Initial residual = 1.28904e-12, Final residual = 1.28904e-12, No Iterations 0
ExecutionTime = 0.99 s  ClockTime = 1 s

Time = 0.985

DICPCG:  Solving for T, Initial residual = 0.0014152, Final residual = 6.79268e-16, No Iterations 1
DICPCG:  Solving for T, Initial residual = 1.2825e-12, Final residual = 1.2825e-12, No Iterations 0
DICPCG:  Solving for T, Initial residual = 1.2825e-12, Final residual = 1.2825e-12, No Iterations 0
ExecutionTime = 0.99 s  ClockTime = 1 s

Time = 0.99

DICPCG:  Solving for T, Initial residual = 0.00140803, Final residual = 6.75825e-16, No Iterations 1
DICPCG:  Solving for T, Initial residual = 4.25342e-13, Final residual = 4.25342e-13, No Iterations 0
DICPCG:  Solving for T, Initial residual = 4.25342e-13, Final residual = 4.25342e-13, No Iterations 0
ExecutionTime = 1 s  ClockTime = 1 s

Time = 0.995

DICPCG:  Solving for T, Initial residual = 0.00140093, Final residual = 6.72417e-16, No Iterations 1
DICPCG:  Solving for T, Initial residual = 8.46409e-13, Final residual = 8.46409e-13, No Iterations 0
DICPCG:  Solving for T, Initial residual = 8.46409e-13, Final residual = 8.46409e-13, No Iterations 0
ExecutionTime = 1 s  ClockTime = 1 s

Time = 1

DICPCG:  Solving for T, Initial residual = 0.0013939, Final residual = 6.68942e-16, No Iterations 1
DICPCG:  Solving for T, Initial residual = 1.26327e-12, Final residual = 1.26327e-12, No Iterations 0
DICPCG:  Solving for T, Initial residual = 1.26327e-12, Final residual = 1.26327e-12, No Iterations 0
ExecutionTime = 1 s  ClockTime = 1 s

Time = 1.005

DICPCG:  Solving for T, Initial residual = 0.00138694, Final residual = 6.65702e-16, No Iterations 1
DICPCG:  Solving for T, Initial residual = 1.25698e-12, Final residual = 1.25698e-12, No Iterations 0
DICPCG:  Solving for T, Initial residual = 1.25698e-12, Final residual = 1.25698e-12, No Iterations 0
ExecutionTime = 1 s  ClockTime = 1 s

Time = 1.01

DICPCG:  Solving for T, Initial residual = 0.00138005, Final residual = 6.62345e-16, No Iterations 1
DICPCG:  Solving for T, Initial residual = 1.25076e-12, Final residual = 1.25076e-12, No Iterations 0
DICPCG:  Solving for T, Initial residual = 1.25076e-12, Final residual = 1.25076e-12, No Iterations 0
ExecutionTime = 1.01 s  ClockTime = 1 s

Time = 1.015

DICPCG:  Solving for T, Initial residual = 0.00137322, Final residual = 6.5917e-16, No Iterations 1
DICPCG:  Solving for T, Initial residual = 4.14866e-13, Final residual = 4.14866e-13, No Iterations 0
DICPCG:  Solving for T, Initial residual = 4.14866e-13, Final residual = 4.14866e-13, No Iterations 0
ExecutionTime = 1.02 s  ClockTime = 1 s

Time = 1.02

DICPCG:  Solving for T, Initial residual = 0.00136647, Final residual = 6.55779e-16, No Iterations 1
DICPCG:  Solving for T, Initial residual = 1.2385e-12, Final residual = 1.2385e-12, No Iterations 0
DICPCG:  Solving for T, Initial residual = 1.2385e-12, Final residual = 1.2385e-12, No Iterations 0
ExecutionTime = 1.02 s  ClockTime = 1 s

Time = 1.025

DICPCG:  Solving for T, Initial residual = 0.00135978, Final residual = 6.52667e-16, No Iterations 1
DICPCG:  Solving for T, Initial residual = 1.23246e-12, Final residual = 1.23246e-12, No Iterations 0
DICPCG:  Solving for T, Initial residual = 1.23246e-12, Final residual = 1.23246e-12, No Iterations 0
ExecutionTime = 1.03 s  ClockTime = 1 s

Time = 1.03

DICPCG:  Solving for T, Initial residual = 0.00135316, Final residual = 6.4939e-16, No Iterations 1
DICPCG:  Solving for T, Initial residual = 8.17649e-13, Final residual = 8.17649e-13, No Iterations 0
DICPCG:  Solving for T, Initial residual = 8.17649e-13, Final residual = 8.17649e-13, No Iterations 0
ExecutionTime = 1.03 s  ClockTime = 1 s

Time = 1.035

DICPCG:  Solving for T, Initial residual = 0.0013466, Final residual = 6.4634e-16, No Iterations 1
DICPCG:  Solving for T, Initial residual = 4.0685e-13, Final residual = 4.0685e-13, No Iterations 0
DICPCG:  Solving for T, Initial residual = 4.0685e-13, Final residual = 4.0685e-13, No Iterations 0
ExecutionTime = 1.04 s  ClockTime = 1 s

Time = 1.04

DICPCG:  Solving for T, Initial residual = 0.0013401, Final residual = 6.43125e-16, No Iterations 1
DICPCG:  Solving for T, Initial residual = 1.21468e-12, Final residual = 1.21468e-12, No Iterations 0
DICPCG:  Solving for T, Initial residual = 1.21468e-12, Final residual = 1.21468e-12, No Iterations 0
ExecutionTime = 1.04 s  ClockTime = 1 s

Time = 1.045

DICPCG:  Solving for T, Initial residual = 0.00133366, Final residual = 6.40182e-16, No Iterations 1
DICPCG:  Solving for T, Initial residual = 8.05913e-13, Final residual = 8.05913e-13, No Iterations 0
DICPCG:  Solving for T, Initial residual = 8.05913e-13, Final residual = 8.05913e-13, No Iterations 0
ExecutionTime = 1.05 s  ClockTime = 1 s

Time = 1.05

DICPCG:  Solving for T, Initial residual = 0.00132729, Final residual = 6.36979e-16, No Iterations 1
DICPCG:  Solving for T, Initial residual = 4.01038e-13, Final residual = 4.01038e-13, No Iterations 0
DICPCG:  Solving for T, Initial residual = 4.01038e-13, Final residual = 4.01038e-13, No Iterations 0
ExecutionTime = 1.05 s  ClockTime = 1 s

Time = 1.055

DICPCG:  Solving for T, Initial residual = 0.00132098, Final residual = 6.34045e-16, No Iterations 1
DICPCG:  Solving for T, Initial residual = 1.59655e-12, Final residual = 1.59655e-12, No Iterations 0
DICPCG:  Solving for T, Initial residual = 1.59655e-12, Final residual = 1.59655e-12, No Iterations 0
ExecutionTime = 1.06 s  ClockTime = 1 s

Time = 1.06

DICPCG:  Solving for T, Initial residual = 0.00131473, Final residual = 6.30949e-16, No Iterations 1
DICPCG:  Solving for T, Initial residual = 7.9451e-13, Final residual = 7.9451e-13, No Iterations 0
DICPCG:  Solving for T, Initial residual = 7.9451e-13, Final residual = 7.9451e-13, No Iterations 0
ExecutionTime = 1.06 s  ClockTime = 1 s

Time = 1.065

DICPCG:  Solving for T, Initial residual = 0.00130853, Final residual = 6.28072e-16, No Iterations 1
DICPCG:  Solving for T, Initial residual = 1.18617e-12, Final residual = 1.18617e-12, No Iterations 0
DICPCG:  Solving for T, Initial residual = 1.18617e-12, Final residual = 1.18617e-12, No Iterations 0
ExecutionTime = 1.07 s  ClockTime = 1 s

Time = 1.07

DICPCG:  Solving for T, Initial residual = 0.0013024, Final residual = 6.25174e-16, No Iterations 1
DICPCG:  Solving for T, Initial residual = 1.18063e-12, Final residual = 1.18063e-12, No Iterations 0
DICPCG:  Solving for T, Initial residual = 1.18063e-12, Final residual = 1.18063e-12, No Iterations 0
ExecutionTime = 1.07 s  ClockTime = 1 s

Time = 1.075

DICPCG:  Solving for T, Initial residual = 0.00129632, Final residual = 6.22257e-16, No Iterations 1
DICPCG:  Solving for T, Initial residual = 1.95856e-12, Final residual = 1.95856e-12, No Iterations 0
DICPCG:  Solving for T, Initial residual = 1.95856e-12, Final residual = 1.95856e-12, No Iterations 0
ExecutionTime = 1.07 s  ClockTime = 1 s

Time = 1.08

DICPCG:  Solving for T, Initial residual = 0.0012903, Final residual = 6.19227e-16, No Iterations 1
DICPCG:  Solving for T, Initial residual = 3.89899e-13, Final residual = 3.89899e-13, No Iterations 0
DICPCG:  Solving for T, Initial residual = 3.89899e-13, Final residual = 3.89899e-13, No Iterations 0
ExecutionTime = 1.08 s  ClockTime = 1 s

Time = 1.085

DICPCG:  Solving for T, Initial residual = 0.00128433, Final residual = 6.16364e-16, No Iterations 1
DICPCG:  Solving for T, Initial residual = 3.88102e-13, Final residual = 3.88102e-13, No Iterations 0
DICPCG:  Solving for T, Initial residual = 3.88102e-13, Final residual = 3.88102e-13, No Iterations 0
ExecutionTime = 1.09 s  ClockTime = 1 s

Time = 1.09

DICPCG:  Solving for T, Initial residual = 0.00127842, Final residual = 6.13527e-16, No Iterations 1
DICPCG:  Solving for T, Initial residual = 7.72644e-13, Final residual = 7.72644e-13, No Iterations 0
DICPCG:  Solving for T, Initial residual = 7.72644e-13, Final residual = 7.72644e-13, No Iterations 0
ExecutionTime = 1.1 s  ClockTime = 1 s

Time = 1.095

DICPCG:  Solving for T, Initial residual = 0.00127256, Final residual = 6.1067e-16, No Iterations 1
DICPCG:  Solving for T, Initial residual = 7.69116e-13, Final residual = 7.69116e-13, No Iterations 0
DICPCG:  Solving for T, Initial residual = 7.69116e-13, Final residual = 7.69116e-13, No Iterations 0
ExecutionTime = 1.1 s  ClockTime = 1 s

Time = 1.1

DICPCG:  Solving for T, Initial residual = 0.00126676, Final residual = 6.07977e-16, No Iterations 1
DICPCG:  Solving for T, Initial residual = 7.6562e-13, Final residual = 7.6562e-13, No Iterations 0
DICPCG:  Solving for T, Initial residual = 7.6562e-13, Final residual = 7.6562e-13, No Iterations 0
ExecutionTime = 1.1 s  ClockTime = 1 s

Time = 1.105

DICPCG:  Solving for T, Initial residual = 0.00126101, Final residual = 6.05172e-16, No Iterations 1
DICPCG:  Solving for T, Initial residual = 3.81078e-13, Final residual = 3.81078e-13, No Iterations 0
DICPCG:  Solving for T, Initial residual = 3.81078e-13, Final residual = 3.81078e-13, No Iterations 0
ExecutionTime = 1.1 s  ClockTime = 1 s

Time = 1.11

[...]
DICPCG:  Solving for T, Initial residual = 7.72722e-13, Final residual = 7.72722e-13, No Iterations 0
ExecutionTime = 2.72 s  ClockTime = 3 s

Time = 2.73

DICPCG:  Solving for T, Initial residual = 0.0005094, Final residual = 2.44474e-16, No Iterations 1
DICPCG:  Solving for T, Initial residual = 1.54261e-13, Final residual = 1.54261e-13, No Iterations 0
DICPCG:  Solving for T, Initial residual = 1.54261e-13, Final residual = 1.54261e-13, No Iterations 0
ExecutionTime = 2.73 s  ClockTime = 3 s

Time = 2.735

DICPCG:  Solving for T, Initial residual = 0.000508467, Final residual = 2.44009e-16, No Iterations 1
DICPCG:  Solving for T, Initial residual = 3.07959e-13, Final residual = 3.07959e-13, No Iterations 0
DICPCG:  Solving for T, Initial residual = 3.07959e-13, Final residual = 3.07959e-13, No Iterations 0
ExecutionTime = 2.73 s  ClockTime = 3 s

Time = 2.74

DICPCG:  Solving for T, Initial residual = 0.000507538, Final residual = 2.43599e-16, No Iterations 1
DICPCG:  Solving for T, Initial residual = 1.53699e-13, Final residual = 1.53699e-13, No Iterations 0
DICPCG:  Solving for T, Initial residual = 1.53699e-13, Final residual = 1.53699e-13, No Iterations 0
ExecutionTime = 2.74 s  ClockTime = 3 s

Time = 2.745

DICPCG:  Solving for T, Initial residual = 0.000506612, Final residual = 2.43155e-16, No Iterations 1
DICPCG:  Solving for T, Initial residual = 3.06837e-13, Final residual = 3.06837e-13, No Iterations 0
DICPCG:  Solving for T, Initial residual = 3.06837e-13, Final residual = 3.06837e-13, No Iterations 0
ExecutionTime = 2.74 s  ClockTime = 3 s

Time = 2.75

DICPCG:  Solving for T, Initial residual = 0.00050569, Final residual = 2.42694e-16, No Iterations 1
DICPCG:  Solving for T, Initial residual = 3.0628e-13, Final residual = 3.0628e-13, No Iterations 0
DICPCG:  Solving for T, Initial residual = 3.0628e-13, Final residual = 3.0628e-13, No Iterations 0
ExecutionTime = 2.74 s  ClockTime = 3 s

Time = 2.755

DICPCG:  Solving for T, Initial residual = 0.000504771, Final residual = 2.42253e-16, No Iterations 1
DICPCG:  Solving for T, Initial residual = 4.58586e-13, Final residual = 4.58586e-13, No Iterations 0
DICPCG:  Solving for T, Initial residual = 4.58586e-13, Final residual = 4.58586e-13, No Iterations 0
ExecutionTime = 2.75 s  ClockTime = 3 s

Time = 2.76

DICPCG:  Solving for T, Initial residual = 0.000503855, Final residual = 2.41814e-16, No Iterations 1
DICPCG:  Solving for T, Initial residual = 1.52585e-13, Final residual = 1.52585e-13, No Iterations 0
DICPCG:  Solving for T, Initial residual = 1.52585e-13, Final residual = 1.52585e-13, No Iterations 0
ExecutionTime = 2.75 s  ClockTime = 3 s

Time = 2.765

DICPCG:  Solving for T, Initial residual = 0.000502943, Final residual = 2.41376e-16, No Iterations 1
DICPCG:  Solving for T, Initial residual = 1.52309e-13, Final residual = 1.52309e-13, No Iterations 0
DICPCG:  Solving for T, Initial residual = 1.52309e-13, Final residual = 1.52309e-13, No Iterations 0
ExecutionTime = 2.76 s  ClockTime = 3 s

Time = 2.77

DICPCG:  Solving for T, Initial residual = 0.000502034, Final residual = 2.40958e-16, No Iterations 1
DICPCG:  Solving for T, Initial residual = 3.04069e-13, Final residual = 3.04069e-13, No Iterations 0
DICPCG:  Solving for T, Initial residual = 3.04069e-13, Final residual = 3.04069e-13, No Iterations 0
ExecutionTime = 2.76 s  ClockTime = 3 s

Time = 2.775

DICPCG:  Solving for T, Initial residual = 0.000501128, Final residual = 2.40505e-16, No Iterations 1
DICPCG:  Solving for T, Initial residual = 1.5176e-13, Final residual = 1.5176e-13, No Iterations 0
DICPCG:  Solving for T, Initial residual = 1.5176e-13, Final residual = 1.5176e-13, No Iterations 0
ExecutionTime = 2.77 s  ClockTime = 3 s

Time = 2.78

DICPCG:  Solving for T, Initial residual = 0.000500225, Final residual = 2.40072e-16, No Iterations 1
DICPCG:  Solving for T, Initial residual = 1.51487e-13, Final residual = 1.51487e-13, No Iterations 0
DICPCG:  Solving for T, Initial residual = 1.51487e-13, Final residual = 1.51487e-13, No Iterations 0
ExecutionTime = 2.77 s  ClockTime = 3 s

Time = 2.785

DICPCG:  Solving for T, Initial residual = 0.000499326, Final residual = 2.39659e-16, No Iterations 1
DICPCG:  Solving for T, Initial residual = 1.51216e-13, Final residual = 1.51216e-13, No Iterations 0
DICPCG:  Solving for T, Initial residual = 1.51216e-13, Final residual = 1.51216e-13, No Iterations 0
ExecutionTime = 2.78 s  ClockTime = 3 s

Time = 2.79

DICPCG:  Solving for T, Initial residual = 0.00049843, Final residual = 2.39211e-16, No Iterations 1
DICPCG:  Solving for T, Initial residual = 1.50945e-13, Final residual = 1.50945e-13, No Iterations 0
DICPCG:  Solving for T, Initial residual = 1.50945e-13, Final residual = 1.50945e-13, No Iterations 0
ExecutionTime = 2.78 s  ClockTime = 3 s

Time = 2.795

DICPCG:  Solving for T, Initial residual = 0.000497537, Final residual = 2.38782e-16, No Iterations 1
DICPCG:  Solving for T, Initial residual = 6.02698e-13, Final residual = 6.02698e-13, No Iterations 0
DICPCG:  Solving for T, Initial residual = 6.02698e-13, Final residual = 6.02698e-13, No Iterations 0
ExecutionTime = 2.78 s  ClockTime = 3 s

Time = 2.8

DICPCG:  Solving for T, Initial residual = 0.000496648, Final residual = 2.38373e-16, No Iterations 1
DICPCG:  Solving for T, Initial residual = 7.52028e-13, Final residual = 7.52028e-13, No Iterations 0
DICPCG:  Solving for T, Initial residual = 7.52028e-13, Final residual = 7.52028e-13, No Iterations 0
ExecutionTime = 2.79 s  ClockTime = 3 s

Time = 2.805

DICPCG:  Solving for T, Initial residual = 0.000495761, Final residual = 2.3793e-16, No Iterations 1
DICPCG:  Solving for T, Initial residual = 4.50413e-13, Final residual = 4.50413e-13, No Iterations 0
DICPCG:  Solving for T, Initial residual = 4.50413e-13, Final residual = 4.50413e-13, No Iterations 0
ExecutionTime = 2.79 s  ClockTime = 3 s

Time = 2.81

DICPCG:  Solving for T, Initial residual = 0.000494878, Final residual = 2.37524e-16, No Iterations 1
DICPCG:  Solving for T, Initial residual = 5.99482e-13, Final residual = 5.99482e-13, No Iterations 0
DICPCG:  Solving for T, Initial residual = 5.99482e-13, Final residual = 5.99482e-13, No Iterations 0
ExecutionTime = 2.8 s  ClockTime = 3 s

Time = 2.815

DICPCG:  Solving for T, Initial residual = 0.000493998, Final residual = 2.37084e-16, No Iterations 1
DICPCG:  Solving for T, Initial residual = 4.48813e-13, Final residual = 4.48813e-13, No Iterations 0
DICPCG:  Solving for T, Initial residual = 4.48813e-13, Final residual = 4.48813e-13, No Iterations 0
ExecutionTime = 2.8 s  ClockTime = 3 s

Time = 2.82

DICPCG:  Solving for T, Initial residual = 0.000493121, Final residual = 2.36663e-16, No Iterations 1
DICPCG:  Solving for T, Initial residual = 4.48017e-13, Final residual = 4.48017e-13, No Iterations 0
DICPCG:  Solving for T, Initial residual = 4.48017e-13, Final residual = 4.48017e-13, No Iterations 0
ExecutionTime = 2.8 s  ClockTime = 3 s

Time = 2.825

DICPCG:  Solving for T, Initial residual = 0.000492247, Final residual = 2.36244e-16, No Iterations 1
DICPCG:  Solving for T, Initial residual = 2.9815e-13, Final residual = 2.9815e-13, No Iterations 0
DICPCG:  Solving for T, Initial residual = 2.9815e-13, Final residual = 2.9815e-13, No Iterations 0
ExecutionTime = 2.81 s  ClockTime = 3 s

Time = 2.83

DICPCG:  Solving for T, Initial residual = 0.000491376, Final residual = 2.35826e-16, No Iterations 1
DICPCG:  Solving for T, Initial residual = 1.48811e-13, Final residual = 1.48811e-13, No Iterations 0
DICPCG:  Solving for T, Initial residual = 1.48811e-13, Final residual = 1.48811e-13, No Iterations 0
ExecutionTime = 2.82 s  ClockTime = 3 s

Time = 2.835

DICPCG:  Solving for T, Initial residual = 0.000490508, Final residual = 2.35427e-16, No Iterations 1
DICPCG:  Solving for T, Initial residual = 5.94196e-13, Final residual = 5.94196e-13, No Iterations 0
DICPCG:  Solving for T, Initial residual = 5.94196e-13, Final residual = 5.94196e-13, No Iterations 0
ExecutionTime = 2.82 s  ClockTime = 3 s

Time = 2.84

DICPCG:  Solving for T, Initial residual = 0.000489643, Final residual = 2.34995e-16, No Iterations 1
DICPCG:  Solving for T, Initial residual = 1.48288e-13, Final residual = 1.48288e-13, No Iterations 0
DICPCG:  Solving for T, Initial residual = 1.48288e-13, Final residual = 1.48288e-13, No Iterations 0
ExecutionTime = 2.83 s  ClockTime = 3 s

Time = 2.845

DICPCG:  Solving for T, Initial residual = 0.000488782, Final residual = 2.34581e-16, No Iterations 1
DICPCG:  Solving for T, Initial residual = 2.96054e-13, Final residual = 2.96054e-13, No Iterations 0
DICPCG:  Solving for T, Initial residual = 2.96054e-13, Final residual = 2.96054e-13, No Iterations 0
ExecutionTime = 2.83 s  ClockTime = 3 s

Time = 2.85

DICPCG:  Solving for T, Initial residual = 0.000487923, Final residual = 2.34169e-16, No Iterations 1
DICPCG:  Solving for T, Initial residual = 4.43302e-13, Final residual = 4.43302e-13, No Iterations 0
DICPCG:  Solving for T, Initial residual = 4.43302e-13, Final residual = 4.43302e-13, No Iterations 0
ExecutionTime = 2.84 s  ClockTime = 3 s

Time = 2.855

DICPCG:  Solving for T, Initial residual = 0.000487067, Final residual = 2.33758e-16, No Iterations 1
DICPCG:  Solving for T, Initial residual = 4.42526e-13, Final residual = 4.42526e-13, No Iterations 0
DICPCG:  Solving for T, Initial residual = 4.42526e-13, Final residual = 4.42526e-13, No Iterations 0
ExecutionTime = 2.84 s  ClockTime = 3 s

Time = 2.86

DICPCG:  Solving for T, Initial residual = 0.000486215, Final residual = 2.33332e-16, No Iterations 1
DICPCG:  Solving for T, Initial residual = 5.89003e-13, Final residual = 5.89003e-13, No Iterations 0
DICPCG:  Solving for T, Initial residual = 5.89003e-13, Final residual = 5.89003e-13, No Iterations 0
ExecutionTime = 2.85 s  ClockTime = 3 s

Time = 2.865

DICPCG:  Solving for T, Initial residual = 0.000485365, Final residual = 2.32942e-16, No Iterations 1
DICPCG:  Solving for T, Initial residual = 4.40982e-13, Final residual = 4.40982e-13, No Iterations 0
DICPCG:  Solving for T, Initial residual = 4.40982e-13, Final residual = 4.40982e-13, No Iterations 0
ExecutionTime = 2.85 s  ClockTime = 3 s

Time = 2.87

DICPCG:  Solving for T, Initial residual = 0.000484518, Final residual = 2.32535e-16, No Iterations 1
DICPCG:  Solving for T, Initial residual = 4.40213e-13, Final residual = 4.40213e-13, No Iterations 0
DICPCG:  Solving for T, Initial residual = 4.40213e-13, Final residual = 4.40213e-13, No Iterations 0
ExecutionTime = 2.85 s  ClockTime = 3 s

Time = 2.875

DICPCG:  Solving for T, Initial residual = 0.000483675, Final residual = 2.32131e-16, No Iterations 1
DICPCG:  Solving for T, Initial residual = 2.92965e-13, Final residual = 2.92965e-13, No Iterations 0
DICPCG:  Solving for T, Initial residual = 2.92965e-13, Final residual = 2.92965e-13, No Iterations 0
ExecutionTime = 2.85 s  ClockTime = 3 s

Time = 2.88

DICPCG:  Solving for T, Initial residual = 0.000482834, Final residual = 2.31692e-16, No Iterations 1
DICPCG:  Solving for T, Initial residual = 7.31142e-13, Final residual = 7.31142e-13, No Iterations 0
DICPCG:  Solving for T, Initial residual = 7.31142e-13, Final residual = 7.31142e-13, No Iterations 0
ExecutionTime = 2.86 s  ClockTime = 3 s

Time = 2.885

DICPCG:  Solving for T, Initial residual = 0.000481996, Final residual = 2.3129e-16, No Iterations 1
DICPCG:  Solving for T, Initial residual = 4.37925e-13, Final residual = 4.37925e-13, No Iterations 0
DICPCG:  Solving for T, Initial residual = 4.37925e-13, Final residual = 4.37925e-13, No Iterations 0
ExecutionTime = 2.86 s  ClockTime = 3 s

Time = 2.89

DICPCG:  Solving for T, Initial residual = 0.000481161, Final residual = 2.30942e-16, No Iterations 1
DICPCG:  Solving for T, Initial residual = 1.45723e-13, Final residual = 1.45723e-13, No Iterations 0
DICPCG:  Solving for T, Initial residual = 1.45723e-13, Final residual = 1.45723e-13, No Iterations 0
ExecutionTime = 2.87 s  ClockTime = 3 s

Time = 2.895

DICPCG:  Solving for T, Initial residual = 0.000480329, Final residual = 2.30525e-16, No Iterations 1
DICPCG:  Solving for T, Initial residual = 4.36413e-13, Final residual = 4.36413e-13, No Iterations 0
DICPCG:  Solving for T, Initial residual = 4.36413e-13, Final residual = 4.36413e-13, No Iterations 0
ExecutionTime = 2.88 s  ClockTime = 3 s

Time = 2.9

DICPCG:  Solving for T, Initial residual = 0.0004795, Final residual = 2.30127e-16, No Iterations 1
DICPCG:  Solving for T, Initial residual = 2.9044e-13, Final residual = 2.9044e-13, No Iterations 0
DICPCG:  Solving for T, Initial residual = 2.9044e-13, Final residual = 2.9044e-13, No Iterations 0
ExecutionTime = 2.88 s  ClockTime = 3 s

Time = 2.905

DICPCG:  Solving for T, Initial residual = 0.000478673, Final residual = 2.29748e-16, No Iterations 1
DICPCG:  Solving for T, Initial residual = 4.34911e-13, Final residual = 4.34911e-13, No Iterations 0
DICPCG:  Solving for T, Initial residual = 4.34911e-13, Final residual = 4.34911e-13, No Iterations 0
ExecutionTime = 2.89 s  ClockTime = 3 s

Time = 2.91

DICPCG:  Solving for T, Initial residual = 0.00047785, Final residual = 2.29335e-16, No Iterations 1
DICPCG:  Solving for T, Initial residual = 4.34163e-13, Final residual = 4.34163e-13, No Iterations 0
DICPCG:  Solving for T, Initial residual = 4.34163e-13, Final residual = 4.34163e-13, No Iterations 0
ExecutionTime = 2.89 s  ClockTime = 3 s

Time = 2.915

DICPCG:  Solving for T, Initial residual = 0.000477029, Final residual = 2.28942e-16, No Iterations 1
DICPCG:  Solving for T, Initial residual = 4.33419e-13, Final residual = 4.33419e-13, No Iterations 0
DICPCG:  Solving for T, Initial residual = 4.33419e-13, Final residual = 4.33419e-13, No Iterations 0
ExecutionTime = 2.89 s  ClockTime = 3 s

Time = 2.92

DICPCG:  Solving for T, Initial residual = 0.000476211, Final residual = 2.28549e-16, No Iterations 1
DICPCG:  Solving for T, Initial residual = 5.76902e-13, Final residual = 5.76902e-13, No Iterations 0
DICPCG:  Solving for T, Initial residual = 5.76902e-13, Final residual = 5.76902e-13, No Iterations 0
ExecutionTime = 2.9 s  ClockTime = 3 s

Time = 2.925

DICPCG:  Solving for T, Initial residual = 0.000475396, Final residual = 2.28158e-16, No Iterations 1
DICPCG:  Solving for T, Initial residual = 4.31937e-13, Final residual = 4.31937e-13, No Iterations 0
DICPCG:  Solving for T, Initial residual = 4.31937e-13, Final residual = 4.31937e-13, No Iterations 0
ExecutionTime = 2.91 s  ClockTime = 3 s

Time = 2.93

DICPCG:  Solving for T, Initial residual = 0.000474584, Final residual = 2.27768e-16, No Iterations 1
DICPCG:  Solving for T, Initial residual = 4.312e-13, Final residual = 4.312e-13, No Iterations 0
DICPCG:  Solving for T, Initial residual = 4.312e-13, Final residual = 4.312e-13, No Iterations 0
ExecutionTime = 2.92 s  ClockTime = 3 s

Time = 2.935

DICPCG:  Solving for T, Initial residual = 0.000473774, Final residual = 2.27414e-16, No Iterations 1
DICPCG:  Solving for T, Initial residual = 5.73955e-13, Final residual = 5.73955e-13, No Iterations 0
DICPCG:  Solving for T, Initial residual = 5.73955e-13, Final residual = 5.73955e-13, No Iterations 0
ExecutionTime = 2.93 s  ClockTime = 3 s

Time = 2.94

DICPCG:  Solving for T, Initial residual = 0.000472967, Final residual = 2.26993e-16, No Iterations 1
DICPCG:  Solving for T, Initial residual = 2.86489e-13, Final residual = 2.86489e-13, No Iterations 0
DICPCG:  Solving for T, Initial residual = 2.86489e-13, Final residual = 2.86489e-13, No Iterations 0
ExecutionTime = 2.94 s  ClockTime = 3 s

Time = 2.945

DICPCG:  Solving for T, Initial residual = 0.000472163, Final residual = 2.26624e-16, No Iterations 1
DICPCG:  Solving for T, Initial residual = 4.29005e-13, Final residual = 4.29005e-13, No Iterations 0
DICPCG:  Solving for T, Initial residual = 4.29005e-13, Final residual = 4.29005e-13, No Iterations 0
ExecutionTime = 2.94 s  ClockTime = 3 s

Time = 2.95

DICPCG:  Solving for T, Initial residual = 0.000471362, Final residual = 2.26222e-16, No Iterations 1
DICPCG:  Solving for T, Initial residual = 4.28278e-13, Final residual = 4.28278e-13, No Iterations 0
DICPCG:  Solving for T, Initial residual = 4.28278e-13, Final residual = 4.28278e-13, No Iterations 0
ExecutionTime = 2.95 s  ClockTime = 3 s

Time = 2.955

DICPCG:  Solving for T, Initial residual = 0.000470564, Final residual = 2.25839e-16, No Iterations 1
DICPCG:  Solving for T, Initial residual = 1.42518e-13, Final residual = 1.42518e-13, No Iterations 0
DICPCG:  Solving for T, Initial residual = 1.42518e-13, Final residual = 1.42518e-13, No Iterations 0
ExecutionTime = 2.96 s  ClockTime = 3 s

Time = 2.96

DICPCG:  Solving for T, Initial residual = 0.000469768, Final residual = 2.25457e-16, No Iterations 1
DICPCG:  Solving for T, Initial residual = 2.84554e-13, Final residual = 2.84554e-13, No Iterations 0
DICPCG:  Solving for T, Initial residual = 2.84554e-13, Final residual = 2.84554e-13, No Iterations 0
ExecutionTime = 2.96 s  ClockTime = 3 s

Time = 2.965

DICPCG:  Solving for T, Initial residual = 0.000468974, Final residual = 2.25043e-16, No Iterations 1
DICPCG:  Solving for T, Initial residual = 2.84074e-13, Final residual = 2.84074e-13, No Iterations 0
DICPCG:  Solving for T, Initial residual = 2.84074e-13, Final residual = 2.84074e-13, No Iterations 0
ExecutionTime = 2.96 s  ClockTime = 3 s

Time = 2.97

DICPCG:  Solving for T, Initial residual = 0.000468184, Final residual = 2.24697e-16, No Iterations 1
DICPCG:  Solving for T, Initial residual = 1.41798e-13, Final residual = 1.41798e-13, No Iterations 0
DICPCG:  Solving for T, Initial residual = 1.41798e-13, Final residual = 1.41798e-13, No Iterations 0
ExecutionTime = 2.97 s  ClockTime = 3 s

Time = 2.975

DICPCG:  Solving for T, Initial residual = 0.000467396, Final residual = 2.24353e-16, No Iterations 1
DICPCG:  Solving for T, Initial residual = 4.24679e-13, Final residual = 4.24679e-13, No Iterations 0
DICPCG:  Solving for T, Initial residual = 4.24679e-13, Final residual = 4.24679e-13, No Iterations 0
ExecutionTime = 2.97 s  ClockTime = 3 s

Time = 2.98

DICPCG:  Solving for T, Initial residual = 0.000466611, Final residual = 2.23909e-16, No Iterations 1
DICPCG:  Solving for T, Initial residual = 5.65289e-13, Final residual = 5.65289e-13, No Iterations 0
DICPCG:  Solving for T, Initial residual = 5.65289e-13, Final residual = 5.65289e-13, No Iterations 0
ExecutionTime = 2.98 s  ClockTime = 3 s

Time = 2.985

DICPCG:  Solving for T, Initial residual = 0.000465828, Final residual = 2.23533e-16, No Iterations 1
DICPCG:  Solving for T, Initial residual = 2.82171e-13, Final residual = 2.82171e-13, No Iterations 0
DICPCG:  Solving for T, Initial residual = 2.82171e-13, Final residual = 2.82171e-13, No Iterations 0
ExecutionTime = 2.98 s  ClockTime = 3 s

Time = 2.99

DICPCG:  Solving for T, Initial residual = 0.000465048, Final residual = 2.23227e-16, No Iterations 1
DICPCG:  Solving for T, Initial residual = 1.4085e-13, Final residual = 1.4085e-13, No Iterations 0
DICPCG:  Solving for T, Initial residual = 1.4085e-13, Final residual = 1.4085e-13, No Iterations 0
ExecutionTime = 2.98 s  ClockTime = 3 s

Time = 2.995

DICPCG:  Solving for T, Initial residual = 0.000464271, Final residual = 2.2282e-16, No Iterations 1
DICPCG:  Solving for T, Initial residual = 5.62458e-13, Final residual = 5.62458e-13, No Iterations 0
DICPCG:  Solving for T, Initial residual = 5.62458e-13, Final residual = 5.62458e-13, No Iterations 0
ExecutionTime = 2.99 s  ClockTime = 3 s

Time = 3

DICPCG:  Solving for T, Initial residual = 0.000463496, Final residual = 2.22482e-16, No Iterations 1
DICPCG:  Solving for T, Initial residual = 5.61521e-13, Final residual = 5.61521e-13, No Iterations 0
DICPCG:  Solving for T, Initial residual = 5.61521e-13, Final residual = 5.61521e-13, No Iterations 0
ExecutionTime = 3 s  ClockTime = 3 s

End

