/*---------------------------------------------------------------------------*\
| =========                 |                                                 |
| \\      /  F ield         | OpenFOAM: The Open Source CFD Toolbox           |
|  \\    /   O peration     | Version:  4.0                                   |
|   \\  /    A nd           | Web:      www.OpenFOAM.org                      |
|    \\/     M anipulation  |                                                 |
\*---------------------------------------------------------------------------*/
Build  : 4.0
Exec   : foamToVTK
Date   : Sep 08 2017
Time   : 00:33:58
Host   : "debian-dell"
PID    : 6160
Case   : /home/jenek/matrLaplacianFoam/testCase40
nProcs : 1
sigFpe : Enabling floating point exception trapping (FOAM_SIGFPE).
fileModificationChecking : Monitoring run-time modified files using timeStampMaster
allowSystemOperations : Allowing user-supplied system call operations

// * * * * * * * * * * * * * * * * * * * * * * * * * * * * * * * * * * * * * //
Create time

--> FOAM Warning : 
    From function int main(int, char**)
    in file foamToVTK.C at line 336
    Using ASCII rather than binary VTK format because floatScalar and/or label are not 4 bytes in size.

Create mesh for time = 0

Deleting old VTK files in "/home/jenek/matrLaplacianFoam/testCase40/VTK"

Time: 0
    volScalarFields            : T

    Internal  : "/home/jenek/matrLaplacianFoam/testCase40/VTK/testCase40_0.vtk"
    Original cells:40 points:99   Additional cells:0  additional points:0

    Patch     : "/home/jenek/matrLaplacianFoam/testCase40/VTK/walls/walls_0.vtk"
    Patch     : "/home/jenek/matrLaplacianFoam/testCase40/VTK/inlet/inlet_0.vtk"
    Patch     : "/home/jenek/matrLaplacianFoam/testCase40/VTK/outlet/outlet_0.vtk"
Time: 0.1
    volScalarFields            : gradTy gradTx T gradTz

    Internal  : "/home/jenek/matrLaplacianFoam/testCase40/VTK/testCase40_20.vtk"
    Patch     : "/home/jenek/matrLaplacianFoam/testCase40/VTK/walls/walls_20.vtk"
    Patch     : "/home/jenek/matrLaplacianFoam/testCase40/VTK/inlet/inlet_20.vtk"
    Patch     : "/home/jenek/matrLaplacianFoam/testCase40/VTK/outlet/outlet_20.vtk"
Time: 0.2
    volScalarFields            : gradTy gradTx T gradTz

    Internal  : "/home/jenek/matrLaplacianFoam/testCase40/VTK/testCase40_40.vtk"
    Patch     : "/home/jenek/matrLaplacianFoam/testCase40/VTK/walls/walls_40.vtk"
    Patch     : "/home/jenek/matrLaplacianFoam/testCase40/VTK/inlet/inlet_40.vtk"
    Patch     : "/home/jenek/matrLaplacianFoam/testCase40/VTK/outlet/outlet_40.vtk"
Time: 0.3
    volScalarFields            : gradTy gradTx T gradTz

    Internal  : "/home/jenek/matrLaplacianFoam/testCase40/VTK/testCase40_60.vtk"
    Patch     : "/home/jenek/matrLaplacianFoam/testCase40/VTK/walls/walls_60.vtk"
    Patch     : "/home/jenek/matrLaplacianFoam/testCase40/VTK/inlet/inlet_60.vtk"
    Patch     : "/home/jenek/matrLaplacianFoam/testCase40/VTK/outlet/outlet_60.vtk"
Time: 0.4
    volScalarFields            : gradTy gradTx T gradTz

    Internal  : "/home/jenek/matrLaplacianFoam/testCase40/VTK/testCase40_80.vtk"
    Patch     : "/home/jenek/matrLaplacianFoam/testCase40/VTK/walls/walls_80.vtk"
    Patch     : "/home/jenek/matrLaplacianFoam/testCase40/VTK/inlet/inlet_80.vtk"
    Patch     : "/home/jenek/matrLaplacianFoam/testCase40/VTK/outlet/outlet_80.vtk"
Time: 0.5
    volScalarFields            : gradTy gradTx T gradTz

    Internal  : "/home/jenek/matrLaplacianFoam/testCase40/VTK/testCase40_100.vtk"
    Patch     : "/home/jenek/matrLaplacianFoam/testCase40/VTK/walls/walls_100.vtk"
    Patch     : "/home/jenek/matrLaplacianFoam/testCase40/VTK/inlet/inlet_100.vtk"
    Patch     : "/home/jenek/matrLaplacianFoam/testCase40/VTK/outlet/outlet_100.vtk"
Time: 0.6
    volScalarFields            : gradTy gradTx T gradTz

    Internal  : "/home/jenek/matrLaplacianFoam/testCase40/VTK/testCase40_120.vtk"
    Patch     : "/home/jenek/matrLaplacianFoam/testCase40/VTK/walls/walls_120.vtk"
    Patch     : "/home/jenek/matrLaplacianFoam/testCase40/VTK/inlet/inlet_120.vtk"
    Patch     : "/home/jenek/matrLaplacianFoam/testCase40/VTK/outlet/outlet_120.vtk"
Time: 0.7
    volScalarFields            : gradTy gradTx T gradTz

    Internal  : "/home/jenek/matrLaplacianFoam/testCase40/VTK/testCase40_140.vtk"
    Patch     : "/home/jenek/matrLaplacianFoam/testCase40/VTK/walls/walls_140.vtk"
    Patch     : "/home/jenek/matrLaplacianFoam/testCase40/VTK/inlet/inlet_140.vtk"
    Patch     : "/home/jenek/matrLaplacianFoam/testCase40/VTK/outlet/outlet_140.vtk"
Time: 0.8
    volScalarFields            : gradTy gradTx T gradTz

    Internal  : "/home/jenek/matrLaplacianFoam/testCase40/VTK/testCase40_160.vtk"
    Patch     : "/home/jenek/matrLaplacianFoam/testCase40/VTK/walls/walls_160.vtk"
    Patch     : "/home/jenek/matrLaplacianFoam/testCase40/VTK/inlet/inlet_160.vtk"
    Patch     : "/home/jenek/matrLaplacianFoam/testCase40/VTK/outlet/outlet_160.vtk"
Time: 0.9
    volScalarFields            : gradTy gradTx T gradTz

    Internal  : "/home/jenek/matrLaplacianFoam/testCase40/VTK/testCase40_180.vtk"
    Patch     : "/home/jenek/matrLaplacianFoam/testCase40/VTK/walls/walls_180.vtk"
    Patch     : "/home/jenek/matrLaplacianFoam/testCase40/VTK/inlet/inlet_180.vtk"
    Patch     : "/home/jenek/matrLaplacianFoam/testCase40/VTK/outlet/outlet_180.vtk"
Time: 1
    volScalarFields            : gradTy gradTx T gradTz

    Internal  : "/home/jenek/matrLaplacianFoam/testCase40/VTK/testCase40_200.vtk"
    Patch     : "/home/jenek/matrLaplacianFoam/testCase40/VTK/walls/walls_200.vtk"
    Patch     : "/home/jenek/matrLaplacianFoam/testCase40/VTK/inlet/inlet_200.vtk"
    Patch     : "/home/jenek/matrLaplacianFoam/testCase40/VTK/outlet/outlet_200.vtk"
Time: 1.1
    volScalarFields            : gradTy gradTx T gradTz

    Internal  : "/home/jenek/matrLaplacianFoam/testCase40/VTK/testCase40_220.vtk"
    Patch     : "/home/jenek/matrLaplacianFoam/testCase40/VTK/walls/walls_220.vtk"
    Patch     : "/home/jenek/matrLaplacianFoam/testCase40/VTK/inlet/inlet_220.vtk"
    Patch     : "/home/jenek/matrLaplacianFoam/testCase40/VTK/outlet/outlet_220.vtk"
Time: 1.2
    volScalarFields            : gradTy gradTx T gradTz

    Internal  : "/home/jenek/matrLaplacianFoam/testCase40/VTK/testCase40_240.vtk"
    Patch     : "/home/jenek/matrLaplacianFoam/testCase40/VTK/walls/walls_240.vtk"
    Patch     : "/home/jenek/matrLaplacianFoam/testCase40/VTK/inlet/inlet_240.vtk"
    Patch     : "/home/jenek/matrLaplacianFoam/testCase40/VTK/outlet/outlet_240.vtk"
Time: 1.3
    volScalarFields            : gradTy gradTx T gradTz

    Internal  : "/home/jenek/matrLaplacianFoam/testCase40/VTK/testCase40_260.vtk"
    Patch     : "/home/jenek/matrLaplacianFoam/testCase40/VTK/walls/walls_260.vtk"
    Patch     : "/home/jenek/matrLaplacianFoam/testCase40/VTK/inlet/inlet_260.vtk"
    Patch     : "/home/jenek/matrLaplacianFoam/testCase40/VTK/outlet/outlet_260.vtk"
Time: 1.4
    volScalarFields            : gradTy gradTx T gradTz

    Internal  : "/home/jenek/matrLaplacianFoam/testCase40/VTK/testCase40_280.vtk"
    Patch     : "/home/jenek/matrLaplacianFoam/testCase40/VTK/walls/walls_280.vtk"
    Patch     : "/home/jenek/matrLaplacianFoam/testCase40/VTK/inlet/inlet_280.vtk"
    Patch     : "/home/jenek/matrLaplacianFoam/testCase40/VTK/outlet/outlet_280.vtk"
Time: 1.5
    volScalarFields            : gradTy gradTx T gradTz

    Internal  : "/home/jenek/matrLaplacianFoam/testCase40/VTK/testCase40_300.vtk"
    Patch     : "/home/jenek/matrLaplacianFoam/testCase40/VTK/walls/walls_300.vtk"
    Patch     : "/home/jenek/matrLaplacianFoam/testCase40/VTK/inlet/inlet_300.vtk"
    Patch     : "/home/jenek/matrLaplacianFoam/testCase40/VTK/outlet/outlet_300.vtk"
Time: 1.6
    volScalarFields            : gradTy gradTx T gradTz

    Internal  : "/home/jenek/matrLaplacianFoam/testCase40/VTK/testCase40_320.vtk"
    Patch     : "/home/jenek/matrLaplacianFoam/testCase40/VTK/walls/walls_320.vtk"
    Patch     : "/home/jenek/matrLaplacianFoam/testCase40/VTK/inlet/inlet_320.vtk"
    Patch     : "/home/jenek/matrLaplacianFoam/testCase40/VTK/outlet/outlet_320.vtk"
Time: 1.7
    volScalarFields            : gradTy gradTx T gradTz

    Internal  : "/home/jenek/matrLaplacianFoam/testCase40/VTK/testCase40_340.vtk"
    Patch     : "/home/jenek/matrLaplacianFoam/testCase40/VTK/walls/walls_340.vtk"
    Patch     : "/home/jenek/matrLaplacianFoam/testCase40/VTK/inlet/inlet_340.vtk"
    Patch     : "/home/jenek/matrLaplacianFoam/testCase40/VTK/outlet/outlet_340.vtk"
Time: 1.8
    volScalarFields            : gradTy gradTx T gradTz

    Internal  : "/home/jenek/matrLaplacianFoam/testCase40/VTK/testCase40_360.vtk"
    Patch     : "/home/jenek/matrLaplacianFoam/testCase40/VTK/walls/walls_360.vtk"
    Patch     : "/home/jenek/matrLaplacianFoam/testCase40/VTK/inlet/inlet_360.vtk"
    Patch     : "/home/jenek/matrLaplacianFoam/testCase40/VTK/outlet/outlet_360.vtk"
Time: 1.9
    volScalarFields            : gradTy gradTx T gradTz

    Internal  : "/home/jenek/matrLaplacianFoam/testCase40/VTK/testCase40_380.vtk"
    Patch     : "/home/jenek/matrLaplacianFoam/testCase40/VTK/walls/walls_380.vtk"
    Patch     : "/home/jenek/matrLaplacianFoam/testCase40/VTK/inlet/inlet_380.vtk"
    Patch     : "/home/jenek/matrLaplacianFoam/testCase40/VTK/outlet/outlet_380.vtk"
Time: 2
    volScalarFields            : gradTy gradTx T gradTz

    Internal  : "/home/jenek/matrLaplacianFoam/testCase40/VTK/testCase40_400.vtk"
    Patch     : "/home/jenek/matrLaplacianFoam/testCase40/VTK/walls/walls_400.vtk"
    Patch     : "/home/jenek/matrLaplacianFoam/testCase40/VTK/inlet/inlet_400.vtk"
    Patch     : "/home/jenek/matrLaplacianFoam/testCase40/VTK/outlet/outlet_400.vtk"
Time: 2.1
    volScalarFields            : gradTy gradTx T gradTz

    Internal  : "/home/jenek/matrLaplacianFoam/testCase40/VTK/testCase40_420.vtk"
    Patch     : "/home/jenek/matrLaplacianFoam/testCase40/VTK/walls/walls_420.vtk"
    Patch     : "/home/jenek/matrLaplacianFoam/testCase40/VTK/inlet/inlet_420.vtk"
    Patch     : "/home/jenek/matrLaplacianFoam/testCase40/VTK/outlet/outlet_420.vtk"
Time: 2.2
    volScalarFields            : gradTy gradTx T gradTz

    Internal  : "/home/jenek/matrLaplacianFoam/testCase40/VTK/testCase40_440.vtk"
    Patch     : "/home/jenek/matrLaplacianFoam/testCase40/VTK/walls/walls_440.vtk"
    Patch     : "/home/jenek/matrLaplacianFoam/testCase40/VTK/inlet/inlet_440.vtk"
    Patch     : "/home/jenek/matrLaplacianFoam/testCase40/VTK/outlet/outlet_440.vtk"
Time: 2.3
    volScalarFields            : gradTy gradTx T gradTz

    Internal  : "/home/jenek/matrLaplacianFoam/testCase40/VTK/testCase40_460.vtk"
    Patch     : "/home/jenek/matrLaplacianFoam/testCase40/VTK/walls/walls_460.vtk"
    Patch     : "/home/jenek/matrLaplacianFoam/testCase40/VTK/inlet/inlet_460.vtk"
    Patch     : "/home/jenek/matrLaplacianFoam/testCase40/VTK/outlet/outlet_460.vtk"
Time: 2.4
    volScalarFields            : gradTy gradTx T gradTz

    Internal  : "/home/jenek/matrLaplacianFoam/testCase40/VTK/testCase40_480.vtk"
    Patch     : "/home/jenek/matrLaplacianFoam/testCase40/VTK/walls/walls_480.vtk"
    Patch     : "/home/jenek/matrLaplacianFoam/testCase40/VTK/inlet/inlet_480.vtk"
    Patch     : "/home/jenek/matrLaplacianFoam/testCase40/VTK/outlet/outlet_480.vtk"
Time: 2.5
    volScalarFields            : gradTy gradTx T gradTz

    Internal  : "/home/jenek/matrLaplacianFoam/testCase40/VTK/testCase40_500.vtk"
    Patch     : "/home/jenek/matrLaplacianFoam/testCase40/VTK/walls/walls_500.vtk"
    Patch     : "/home/jenek/matrLaplacianFoam/testCase40/VTK/inlet/inlet_500.vtk"
    Patch     : "/home/jenek/matrLaplacianFoam/testCase40/VTK/outlet/outlet_500.vtk"
Time: 2.6
    volScalarFields            : gradTy gradTx T gradTz

    Internal  : "/home/jenek/matrLaplacianFoam/testCase40/VTK/testCase40_520.vtk"
    Patch     : "/home/jenek/matrLaplacianFoam/testCase40/VTK/walls/walls_520.vtk"
    Patch     : "/home/jenek/matrLaplacianFoam/testCase40/VTK/inlet/inlet_520.vtk"
    Patch     : "/home/jenek/matrLaplacianFoam/testCase40/VTK/outlet/outlet_520.vtk"
Time: 2.7
    volScalarFields            : gradTy gradTx T gradTz

    Internal  : "/home/jenek/matrLaplacianFoam/testCase40/VTK/testCase40_540.vtk"
    Patch     : "/home/jenek/matrLaplacianFoam/testCase40/VTK/walls/walls_540.vtk"
    Patch     : "/home/jenek/matrLaplacianFoam/testCase40/VTK/inlet/inlet_540.vtk"
    Patch     : "/home/jenek/matrLaplacianFoam/testCase40/VTK/outlet/outlet_540.vtk"
Time: 2.8
    volScalarFields            : gradTy gradTx T gradTz

    Internal  : "/home/jenek/matrLaplacianFoam/testCase40/VTK/testCase40_560.vtk"
    Patch     : "/home/jenek/matrLaplacianFoam/testCase40/VTK/walls/walls_560.vtk"
    Patch     : "/home/jenek/matrLaplacianFoam/testCase40/VTK/inlet/inlet_560.vtk"
    Patch     : "/home/jenek/matrLaplacianFoam/testCase40/VTK/outlet/outlet_560.vtk"
Time: 2.9
    volScalarFields            : gradTy gradTx T gradTz

    Internal  : "/home/jenek/matrLaplacianFoam/testCase40/VTK/testCase40_580.vtk"
    Patch     : "/home/jenek/matrLaplacianFoam/testCase40/VTK/walls/walls_580.vtk"
    Patch     : "/home/jenek/matrLaplacianFoam/testCase40/VTK/inlet/inlet_580.vtk"
    Patch     : "/home/jenek/matrLaplacianFoam/testCase40/VTK/outlet/outlet_580.vtk"
Time: 3
    volScalarFields            : gradTy gradTx T gradTz

    Internal  : "/home/jenek/matrLaplacianFoam/testCase40/VTK/testCase40_600.vtk"
    Patch     : "/home/jenek/matrLaplacianFoam/testCase40/VTK/walls/walls_600.vtk"
    Patch     : "/home/jenek/matrLaplacianFoam/testCase40/VTK/inlet/inlet_600.vtk"
    Patch     : "/home/jenek/matrLaplacianFoam/testCase40/VTK/outlet/outlet_600.vtk"
End

